7
mol_index=31; YIGBIA  **FRAG**        2
C   4.78513             6.28892             10.18705            
C   3.53772             6.87242             9.71806             
C   3.14503             8.13121             10.02140            
C   3.86221             9.11004             10.80406            
C   4.73581             8.91242             11.81265            
C   5.02474             7.54763             12.32482            
C   5.47300             6.55958             11.31487            
