7
mol_index=7; FEYBES  **FRAG**        1
C   7.99823             -0.73986            15.92607            
C   9.01785             -1.33997            15.21713            
C   9.17863             -1.41835            13.82196            
C   8.37154             -0.96391            12.80507            
C   7.09991             -0.37413            12.89918            
C   6.34258             -0.10629            14.01873            
C   6.79910             -0.14657            15.43007            
