water-6
  MOE2016           3D

  3  2  0  0  0  0  0  0  0  0999 V2000
   -1.8730    0.5920   -5.9070 O   0  0  0  0  0  0  0  0  0  0  0  0
   -1.2110    1.0190   -6.4510 H   0  0  0  0  0  0  0  0  0  0  0  0
   -1.8530    1.0750   -5.0810 H   0  0  0  0  0  0  0  0  0  0  0  0
  1  2  1  0  0  0  0
  1  3  1  0  0  0  0
M  END
$$$$
water-6
  MOE2016           3D

  3  2  0  0  0  0  0  0  0  0999 V2000
    1.1050   -1.6450    1.3210 O   0  0  0  0  0  0  0  0  0  0  0  0
    1.3650   -2.0270    0.4830 H   0  0  0  0  0  0  0  0  0  0  0  0
    0.8980   -0.7340    1.1150 H   0  0  0  0  0  0  0  0  0  0  0  0
  1  2  1  0  0  0  0
  1  3  1  0  0  0  0
M  END
$$$$
water-6
  MOE2016           3D

  3  2  0  0  0  0  0  0  0  0999 V2000
   -1.5080    2.5360   -4.1460 O   0  0  0  0  0  0  0  0  0  0  0  0
   -1.5280    2.6860   -3.2010 H   0  0  0  0  0  0  0  0  0  0  0  0
   -1.4640    3.4120   -4.5280 H   0  0  0  0  0  0  0  0  0  0  0  0
  1  2  1  0  0  0  0
  1  3  1  0  0  0  0
M  END
$$$$
water-6
  MOE2016           3D

  3  2  0  0  0  0  0  0  0  0999 V2000
   -2.6990    0.8840    2.6430 O   0  0  0  0  0  0  0  0  0  0  0  0
   -1.9480    0.6240    3.1780 H   0  0  0  0  0  0  0  0  0  0  0  0
   -2.9990    1.7040    3.0340 H   0  0  0  0  0  0  0  0  0  0  0  0
  1  2  1  0  0  0  0
  1  3  1  0  0  0  0
M  END
$$$$
water-6
  MOE2016           3D

  3  2  0  0  0  0  0  0  0  0999 V2000
    2.3340   -0.4710   -1.7300 O   0  0  0  0  0  0  0  0  0  0  0  0
    2.7870   -0.2380   -2.5400 H   0  0  0  0  0  0  0  0  0  0  0  0
    1.7920   -1.2240   -1.9670 H   0  0  0  0  0  0  0  0  0  0  0  0
  1  2  1  0  0  0  0
  1  3  1  0  0  0  0
M  END
$$$$
water-6
  MOE2016           3D

  3  2  0  0  0  0  0  0  0  0999 V2000
   -0.7690   -0.5250   -1.8680 O   0  0  0  0  0  0  0  0  0  0  0  0
   -1.3460   -0.7560   -1.1400 H   0  0  0  0  0  0  0  0  0  0  0  0
   -0.1790    0.1360   -1.5060 H   0  0  0  0  0  0  0  0  0  0  0  0
  1  2  1  0  0  0  0
  1  3  1  0  0  0  0
M  END
$$$$
