4
mol_index=10; AHEZEU  **FRAG**        8
N   2.53461             -2.16220            8.15727             
C   3.00666             -0.90966            8.40211             
C   3.56044             -3.09495            8.25382             
C   1.14516             -2.49177            7.82949             
