4
mol_index=15; AHEZOE  **FRAG**        1
N   4.09245             1.84798             16.81251            
C   3.07730             2.33402             15.78307            
C   3.46406             0.77651             17.68475            
C   5.27518             1.22184             16.13817            
