4
mol_index=21; AHIGIJ  **FRAG**        1
N   0.70776             0.34092             11.63819            
C   -0.06704            -0.66311            12.40546            
C   -0.11461            1.40771             11.03434            
C   1.45955             -0.36153            10.53787            
