4
mol_index=23; AHIGOP  **FRAG**        2
N   4.57335             -0.85034            2.75917             
C   5.25918             0.25246             3.56420             
C   5.60021             -1.83032            2.19140             
C   3.65409             -1.65718            3.66081             
