4
mol_index=36; AHILUA  **FRAG**        4
N   3.78499             2.31712             14.83890            
C   3.04158             3.62283             15.05957            
C   5.12700             2.63619             14.20946            
C   2.93920             1.42807             13.92730            
