4
mol_index=37; AHIMAH  **FRAG**        1
N   -0.18013            6.25029             3.19865             
C   -0.40415            5.52070             1.87797             
C   0.54202             7.55617             2.97645             
C   -1.50950            6.53961             3.81688             
