4
mol_index=38; AHIMAH  **FRAG**        2
N   -0.18013            6.25029             3.19865             
C   -0.40415            5.52070             1.87797             
C   0.54202             7.55617             2.97645             
C   0.70482             5.36817             4.10180             
