4
mol_index=43; AHIPAK  **FRAG**        3
N   -9.90182            12.08414            31.27155            
C   -10.59291           12.56912            30.05036            
C   -10.49720           12.62046            32.52182            
C   -8.44591            12.30876            31.26018            
