4
mol_index=45; AHIPAK  **FRAG**        5
N   2.11143             21.87852            15.81569            
C   1.81129             23.33401            16.00895            
C   0.87285             21.06222            15.89051            
C   2.82990             21.66363            14.52285            
