4
mol_index=47; AHIPEO  **FRAG**        1
N   6.11055             7.53743             4.54596             
C   6.89178             6.44235             3.93026             
C   7.01351             8.49308             5.24301             
C   5.31565             8.23643             3.50597             
