12
mol_index=10; LUSPEW  **FRAG**        2
O   8.93880             0.60499             9.35136             
C   10.09710            -0.04376            9.89020             
C   10.07123            -0.03424            11.38502            
O   9.96395             1.34316             11.81764            
C   9.61988             1.45540             13.19272            
C   8.15674             1.36979             13.39358            
O   7.54297             2.36480             12.58243            
C   6.11957             2.19357             12.38544            
C   5.82670             1.24042             11.31743            
O   6.54726             1.67609             10.14899            
C   6.60734             0.71343             9.06553             
C   7.77822             -0.22640            9.28763             
