12
mol_index=12; LUSPEW  **FRAG**        4
O   10.51291            3.18477             9.46917             
C   11.24876            4.33958             9.90372             
C   11.21867            4.37763             11.39275            
O   9.87137             4.36051             11.90454            
C   9.22548             5.64279             11.83115            
C   7.72525             5.35361             11.78673            
O   7.38456             4.57929             10.67430            
C   7.27548             5.29082             9.45565             
C   7.02171             4.36431             8.33357             
O   8.05443             3.40926             8.25052             
C   9.20891             3.89820             7.56877             
C   10.37491            3.10486             8.06125             
