12
mol_index=14; ABIMUV  **FRAG**        2
O   9.27798             10.00442            4.95390             
C   10.28945            10.84763            5.49018             
C   11.42037            10.00940            6.04219             
O   11.88169            9.17882             4.99007             
C   12.66423            8.07132             5.42098             
C   11.77527            6.90649             5.82358             
O   10.97132            6.60501             4.69598             
C   9.91554             5.70414             4.99322             
C   8.73313             6.44256             5.61599             
O   8.35151             7.43846             4.68497             
C   7.53091             8.45970             5.25113             
C   8.35794             9.51373             5.92266             
