12
mol_index=17; AJUPUQ01**FRAG**        1
O   -3.45846            10.57636            3.57898             
C   -2.46719            9.92137             4.36982             
C   -2.21995            8.56314             3.76399             
O   -3.38897            7.74803             3.73142             
C   -3.71907            7.16684             4.97566             
C   -5.13942            6.65711             4.88836             
O   -6.06590            7.70255             4.60304             
C   -6.43342            8.42684             5.76780             
C   -7.03683            9.73666             5.32743             
O   -6.13235            10.50545            4.51444             
C   -5.13426            11.19732            5.23884             
C   -4.08848            11.65859            4.24344             
