12
mol_index=47; AZICIW  **FRAG**        2
O   6.60269             2.03230             7.16177             
C   5.19355             1.74871             7.20119             
C   4.37714             3.00211             7.20545             
O   4.67872             3.73872             6.02816             
C   4.33146             5.12010             6.08889             
C   5.34642             5.93477             6.85173             
O   6.59486             5.81772             6.17093             
C   7.70366             6.28050             6.95295             
C   8.16192             5.29657             7.99706             
O   8.49464             4.08413             7.33224             
C   8.52894             2.94146             8.17179             
C   7.13691             2.40632             8.43708             
