12
mol_index=48; AZICOC  **FRAG**        1
O   8.69523             6.14390             4.77876             
C   8.34759             5.22373             5.69927             
C   9.41483             4.39956             6.14035             
O   10.24278            3.79593             5.13114             
C   9.74941             2.53593             4.70804             
C   10.20953            2.21313             3.43754             
O   9.91745             3.18337             2.39957             
C   8.66948             3.09616             1.85661             
C   8.23474             4.26890             1.24653             
O   8.34407             5.49872             2.01842             
C   7.28833             5.80435             2.79270             
C   7.61024             6.56437             3.92057             
