12
mol_index=7; JULZIB  **FRAG**        3
O   4.40032             10.36306            1.68317             
C   4.96720             10.51263            2.91001             
C   6.35928             10.88671            2.76040             
O   7.09821             9.97419             1.87518             
C   7.74279             8.87852             2.45119             
C   8.08003             7.95897             1.34654             
O   6.95103             7.66473             0.53413             
C   6.14741             6.57058             1.06227             
C   4.89417             6.63753             0.38401             
O   4.28649             7.94176             0.47378             
C   3.45170             8.09676             1.58343             
C   3.15883             9.53776             1.68068             
