12
mol_index=9; LUSPEW  **FRAG**        1
O   -1.41741            2.24304             18.57719            
C   -1.46331            2.06040             19.99670            
C   -2.53789            1.09013             20.37523            
O   -3.76814            1.59999             19.84992            
C   -4.80042            0.63353             19.70507            
C   -4.61747            -0.16171            18.43814            
O   -4.67425            0.76480             17.35661            
C   -4.31982            0.15791             16.08002            
C   -2.81827            0.05898             15.96607            
O   -2.30088            1.39453             16.10513            
C   -0.91982            1.42497             16.42765            
C   -0.69809            1.20428             17.90124            
