4-helicene.mol L01_cs  (Symmetric)
 OpenBabel02141914143D

 18 21  0  0  0  0  0  0  0  0999 V2000
   -0.9393   -0.9701    0.0521 C   0  0  0  0  0  0  0  0  0  0  0  0
   -2.2312   -0.4645    0.0947 C   0  0  0  0  0  0  0  0  0  0  0  0
   -3.3877   -1.2518    0.1527 C   0  0  0  0  0  0  0  0  0  0  0  0
   -3.2977   -2.6016    0.1706 C   0  0  0  0  0  0  0  0  0  0  0  0
   -2.0472   -3.1637    0.1304 C   0  0  0  0  0  0  0  0  0  0  0  0
   -0.8825   -2.3782    0.0720 C   0  0  0  0  0  0  0  0  0  0  0  0
    0.3456   -3.0166    0.0333 C   0  0  0  0  0  0  0  0  0  0  0  0
    1.5227   -2.2960   -0.0247 C   0  0  0  0  0  0  0  0  0  0  0  0
    1.5077   -0.9072   -0.0456 C   0  0  0  0  0  0  0  0  0  0  0  0
    0.2892   -0.1740   -0.0088 C   0  0  0  0  0  0  0  0  0  0  0  0
    0.4152    1.2854   -0.0363 C   0  0  0  0  0  0  0  0  0  0  0  0
    1.6842    1.8958   -0.0955 C   0  0  0  0  0  0  0  0  0  0  0  0
    2.8236    1.1097   -0.1285 C   0  0  0  0  0  0  0  0  0  0  0  0
    2.7400   -0.2690   -0.1041 C   0  0  0  0  0  0  0  0  0  0  0  0
    1.8308    3.2939   -0.1227 C   0  0  0  0  0  0  0  0  0  0  0  0
    0.7482    4.1356   -0.0935 C   0  0  0  0  0  0  0  0  0  0  0  0
   -0.4848    3.5819   -0.0368 C   0  0  0  0  0  0  0  0  0  0  0  0
   -0.6370    2.1903   -0.0093 C   0  0  0  0  0  0  0  0  0  0  0  0
  1  2  1  0  0  0  0
  1  6  2  0  0  0  0
  1 10  1  0  0  0  0
  2  3  2  0  0  0  0
  3  4  1  0  0  0  0
  4  5  2  0  0  0  0
  5  6  1  0  0  0  0
  6  7  1  0  0  0  0
  7  8  2  0  0  0  0
  8  9  1  0  0  0  0
  9 10  1  0  0  0  0
  9 14  2  0  0  0  0
 10 11  2  0  0  0  0
 11 12  1  0  0  0  0
 11 18  1  0  0  0  0
 12 13  2  0  0  0  0
 12 15  1  0  0  0  0
 13 14  1  0  0  0  0
 15 16  2  0  0  0  0
 16 17  1  0  0  0  0
 17 18  2  0  0  0  0
M  END

$$$$
