7
mol_index=12; HEWBAM  **FRAG**        1
C   3.63922             15.69337            7.34535             
C   4.58539             16.62794            7.71923             
C   5.70524             16.93947            6.94412             
C   6.06160             16.57271            5.65743             
C   5.43571             15.77070            4.70540             
C   4.30909             14.98194            4.92426             
C   3.49825             14.95101            6.17356             
