7
mol_index=13; JUPDIH  **FRAG**        1
C   -2.68639            5.25784             -0.11341            
C   -3.90868            4.59605             -0.07741            
C   -4.24150            3.41625             0.58388             
C   -3.47731            2.61320             1.42402             
C   -2.15272            2.77982             1.82421             
C   -1.24876            3.76788             1.44742             
C   -1.49055            4.92016             0.50710             
