7
mol_index=19; RUVYOW  **FRAG**        1
C   10.96142            4.48989             14.55672            
C   11.76264            4.84110             15.62548            
C   11.53502            4.64801             16.97037            
C   10.45988            4.08107             17.61528            
C   9.30449             3.52723             17.06527            
C   8.94963             3.43863             15.73340            
C   9.72312             3.85421             14.55300            
