7
mol_index=24; XAMBAP  **FRAG**        1
C   2.45906             15.34613            4.17396             
C   1.22607             14.69410            4.31064             
C   0.72558             13.64152            3.54024             
C   1.31364             12.93826            2.51737             
C   2.56935             13.11990            1.91810             
C   3.55550             14.03275            2.23891             
C   3.50618             15.09696            3.29568             
