7
mol_index=3; DIHRUI  **FRAG**        1
C   1.35212             4.41967             -1.40334            
C   0.61616             4.74713             -2.53428            
C   0.03986             5.95604             -2.84989            
C   -0.00308            7.14782             -2.12473            
C   0.54653             7.44291             -0.89799            
C   1.32876             6.62237             -0.08830            
C   1.70013             5.21260             -0.33628            
