7
mol_index=6; FEYBAO  **FRAG**        1
C   2.04110             4.74368             8.09595             
C   1.07909             3.80912             7.81830             
C   0.78824             3.21501             6.57739             
C   1.33842             3.43916             5.33664             
C   2.45358             4.24983             4.99792             
C   3.36803             4.84161             5.86580             
C   3.05915             5.23919             7.26022             
