7
mol_index=9; GILYIK  **FRAG**        1
C   9.15383             3.37077             2.48398             
C   8.95895             2.01737             2.74619             
C   7.92574             1.41923             3.43098             
C   6.80819             1.97645             4.02701             
C   6.42883             3.31474             4.07643             
C   7.07261             4.42812             3.54393             
C   8.36683             4.45851             2.82687             
