5
mol_index=11; BUHWEH  **FRAG**        1
Te  6.22565             3.26504             3.32467             
C   7.29262             4.25183             1.77914             
C   6.92781             4.27499             5.03717             
Cl  4.46523             5.15858             3.24259             
Cl  8.07081             1.66589             3.54033             
