5
mol_index=18; CATPAQ  **FRAG**        1
Te  -2.68916            4.14923             9.51696             
C   -0.66974            3.61300             9.00385             
C   -3.74565            2.50686             8.65074             
Cl  -2.31588            2.59745             11.47177            
Cl  -2.72379            5.44385             7.39370             
