5
mol_index=30; DAJSIS  **FRAG**        1
Te  9.86042             2.85766             11.76776            
C   7.96731             1.90879             11.51130            
C   9.42626             4.92953             11.97055            
Cl  9.72479             2.49488             14.21324            
Cl  9.78800             3.40481             9.29209             
