5
mol_index=40; DUPMIM  **FRAG**        4
Te  4.64612             5.33401             3.14804             
C   6.60137             4.60172             3.69681             
C   5.05369             4.20558             1.36657             
Cl  4.72727             6.34484             5.83958             
Cl  3.79043             3.10934             3.96112             
