5
mol_index=4; BIBBOE  **FRAG**        1
Te  0.03921             1.58829             8.32810             
C   1.64927             1.67902             9.72305             
C   1.49233             2.17871             6.88500             
Cl  0.67393             -0.81859            7.91822             
Cl  -0.34637            4.05694             8.71564             
