5
mol_index=47; GACXUD  **FRAG**        1
Te  0.05856             1.39824             4.53778             
C   0.76121             2.76394             5.98615             
C   1.86580             1.03919             3.55633             
Cl  0.55124             -0.52502            6.06653             
Cl  -0.32350            3.31717             2.96649             
