5
mol_index=51; HABHIC  **FRAG**        1
Te  2.91620             2.94256             14.00870            
C   3.18134             2.16531             15.93783            
C   1.44022             1.55161             13.52133            
Cl  4.62356             1.26213             13.23327            
Cl  1.08728             4.45654             14.80596            
