
 OpenBabel08131510073D

 13 14  0  0  0  0  0  0  0  0999 V2000
    0.0000    0.0000    0.0000 Cu  0  0  2  0  0  0  0  0  0  0  0  0
   -1.8705   -1.2052   -0.4190 S   0  0  2  0  0  0  0  0  0  0  0  0
   -3.2354   -2.2949   -0.2336 C   0  0  0  0  0  0  0  0  0  0  0  0
   -1.3392   -2.7760    0.3313 C   0  0  0  0  0  0  0  0  0  0  0  0
    0.9251   -1.4821    1.4402 S   0  0  1  0  0  0  0  0  0  0  0  0
   -0.3061    2.1057    0.7739 S   0  0  1  0  0  0  0  0  0  0  0  0
    1.2514    0.5815   -1.7951 S   0  0  1  0  0  0  0  0  0  0  0  0
   -0.5321   -2.5435    1.6902 C   0  0  0  0  0  0  0  0  0  0  0  0
    1.9539   -2.5899    0.4008 C   0  0  0  0  0  0  0  0  0  0  0  0
    1.1912    1.6081    1.5725 C   0  0  0  0  0  0  0  0  0  0  0  0
    0.2930    3.0082   -0.6888 C   0  0  0  0  0  0  0  0  0  0  0  0
    0.0519    0.8358   -3.1598 C   0  0  0  0  0  0  0  0  0  0  0  0
    1.5782    2.3113   -1.3328 C   0  0  0  0  0  0  0  0  0  0  0  0
  1  2  1  6  0  0  0
  1  5  1  0  0  0  0
  1  6  1  0  0  0  0
  1  7  1  0  0  0  0
  2  3  1  1  0  0  0
  2  4  1  0  0  0  0
  4  8  1  0  0  0  0
  5  8  1  0  0  0  0
  5  9  1  6  0  0  0
  6 10  1  1  0  0  0
  6 11  1  0  0  0  0
  7 12  1  6  0  0  0
  7 13  1  0  0  0  0
 11 13  1  0  0  0  0
M  END
