5
mol_index=13; BUNDIY  **FRAG**        1
Te  7.30479             2.80420             4.10503             
C   7.90246             2.29900             2.14689             
C   9.17240             3.60829             4.70252             
Cl  6.58524             5.05360             3.32612             
Cl  8.09923             0.51690             4.91721             
