5
mol_index=15; BUNDOE  **FRAG**        1
Te  13.27733            13.19118            14.51045            
C   15.32514            13.35188            15.07833            
C   12.61570            15.02598            15.35537            
Cl  10.40058            12.77842            12.40977            
Cl  14.25007            10.77377            12.43710            
