5
mol_index=16; BUNDOE  **FRAG**        2
Te  11.48068            9.92646             13.79486            
C   9.57237             9.41040             14.53045            
C   12.45132            8.08774             14.11551            
Cl  10.40058            12.77842            12.40977            
Cl  14.25007            10.77377            12.43710            
