5
mol_index=41; DUPMIM  **FRAG**        5
Te  -0.03423            9.52901             8.03515             
C   1.65810             8.33914             8.60017             
C   -0.25856            7.99702             6.56413             
Cl  1.05564             11.28609            10.03789            
Cl  1.52889             10.51654            6.33101             
