5
mol_index=42; DUPMIM  **FRAG**        6
Te  4.64612             5.33401             3.14804             
C   6.60137             4.60172             3.69681             
C   5.05369             4.20558             1.36657             
Cl  4.72727             6.34484             5.83958             
Cl  5.63446             7.31098             1.93337             
