5
mol_index=43; EVELIB  **FRAG**        1
Te  3.09537             5.88824             6.51508             
C   2.63829             7.20236             8.07713             
C   1.49201             6.45237             5.20923             
Cl  4.46798             7.70504             5.51761             
Cl  1.46464             4.26803             7.59087             
