5
mol_index=44; FIXNAB  **FRAG**        1
Te  4.27348             5.73914             0.00000             
C   2.41804             5.69597             1.15128             
C   3.92490             4.15817             -1.35445            
Cl  3.17411             7.31333             -1.59796            
Cl  5.25252             4.09948             1.65271             
