5
mol_index=46; FOSKED  **FRAG**        1
Te  19.88940            0.95369             2.24667             
C   18.31320            2.18833             3.03256             
C   21.50695            2.11894             3.01567             
Cl  20.13284            2.37165             0.20941             
Cl  20.11909            -0.28642            4.43883             
