5
mol_index=49; GOKDUG  **FRAG**        1
Te  0.75471             6.84843             -5.47429            
C   0.46748             5.51442             -3.90632            
C   -1.10130            6.58725             -6.50414            
Cl  -0.41910            8.57815             -4.08349            
Cl  1.63389             4.91894             -6.80157            
