5
mol_index=52; HAQHIS  **FRAG**        1
Te  -0.26802            3.81336             11.11921            
C   0.96961             2.56615             9.93761             
C   1.14734             5.08333             11.97456            
Cl  0.09331             2.23567             13.00485            
Cl  -0.30733            5.42340             9.15818             
