4
mol_index=12; AHEZIY  **FRAG**        2
N   -0.43861            6.08649             0.89581             
C   0.87854             6.32096             1.10276             
C   -1.11303            6.21033             -0.40365            
C   -0.99751            5.54281             2.04211             
