4
mol_index=17; AHEZOE  **FRAG**        3
N   4.09245             1.84798             16.81251            
C   3.07730             2.33402             15.78307            
C   5.27518             1.22184             16.13817            
C   4.58827             2.99128             17.64133            
