4
mol_index=27; AHIHEG  **FRAG**        1
N   9.89894             -1.29688            10.14914            
C   9.44737             -0.85040            8.93398             
C   9.31643             -2.51701            10.39502            
C   10.90651            -0.64608            10.97388            
