4
mol_index=28; AHIHOQ  **FRAG**        1
N   6.24316             3.03973             13.39891            
C   6.88425             4.19655             13.60108            
C   4.90628             2.65597             13.91451            
C   6.87354             1.93317             12.66728            
