4
mol_index=30; AHIKUZ  **FRAG**        2
N   -4.97947            15.53073            3.10257             
C   -5.21705            15.37042            4.38465             
C   -4.03388            14.58858            2.40204             
C   -5.51367            16.69979            2.46153             
