4
mol_index=39; AHIMAH  **FRAG**        3
N   -0.18013            6.25029             3.19865             
C   -0.40415            5.52070             1.87797             
C   -1.50950            6.53961             3.81688             
C   0.70482             5.36817             4.10180             
