4
mol_index=4; AHEZEU  **FRAG**        2
N   7.04748             2.65761             13.74481            
C   7.02724             3.70932             14.77377            
C   7.31729             1.32181             13.97258            
C   6.72759             2.86264             12.43714            
