4
mol_index=44; AHIPAK  **FRAG**        4
N   3.78831             23.64040            17.44773            
C   3.22685             24.21779            18.67896            
C   3.09325             24.12061            16.22125            
C   5.24469             23.83641            17.40014            
