8
mol_index=16; BOBLUZ  **FRAG**        3
C   1.49049             2.63490             11.74704            
C   1.05657             1.79523             10.50508            
C   1.16223             3.06748             9.60253             
C   1.59512             3.90836             10.84888            
C   -0.44007            2.12891             10.79986            
C   -0.33544            3.40298             9.90485             
C   -0.00923            2.96798             12.04873            
C   0.09950             4.24265             11.14555            
