8
mol_index=17; BOBLUZ  **FRAG**        4
C   -3.03534            4.02060             22.83476            
C   -2.92558            2.73136             23.70463            
C   -1.43099            3.05109             24.00821            
C   -1.54075            4.35125             23.12388            
C   -2.49577            1.91778             22.43879            
C   -0.99810            2.24600             22.74677            
C   -2.60758            3.20580             21.56515            
C   -1.10376            3.53342             21.87375            
