8
mol_index=24; CUGCOW  **FRAG**        1
C   7.75518             2.56321             6.44114             
C   8.85490             1.61508             5.87029             
C   8.78884             0.78384             7.19372             
C   7.70020             1.73605             7.77641             
C   9.95793             2.51662             6.49292             
C   9.89824             1.68292             7.81407             
C   8.85773             3.48845             7.03981             
C   8.81338             2.66620             8.35568             
