8
mol_index=3; AYAMAP  **FRAG**        1
C   -0.27033            -2.16242            3.41009             
C   -0.65664            -0.70015            3.79178             
C   0.04612             -0.88036            5.19849             
C   0.41780             -2.35582            4.80493             
C   0.70018             -0.17511            3.20811             
C   1.39234             -0.36802            4.60051             
C   1.08695             -1.64428            2.82041             
C   1.77089             -1.83668            4.22208             
