8
mol_index=40; GOGXIJ  **FRAG**        1
C   2.82934             1.56563             3.29512             
C   3.83630             2.51605             2.56256             
C   4.93305             2.12700             3.60060             
C   3.93526             1.17927             4.32939             
C   4.29906             1.34351             1.64426             
C   5.40326             0.94638             2.68135             
C   3.31152             0.41194             2.39097             
C   4.39509             0.00269             3.41298             
