8
mol_index=10; BOBLIN  **FRAG**        1
C   8.73442             2.15386             13.71093            
C   9.50821             1.30044             12.67051            
C   8.30237             1.43732             11.65617            
C   7.54036             2.29564             12.72413            
C   8.86549             0.01092             13.26172            
C   7.67651             0.14146             12.26478            
C   8.09455             0.86615             14.29635            
C   6.90808             1.00141             13.30809            
