8
mol_index=1; JUKREO  **FRAG**        1  0001 L01_c2  index=1;filename: many-mols.xyz  (Original)
C          0.09142        0.07636        0.16316
C          0.13665       -0.15076       -0.00130
C         -0.09509       -0.08070       -0.16863
C         -0.13216        0.16273       -0.00279
O          0.19705        0.16980        0.37644
O         -0.21003       -0.18943       -0.35418
O          0.30314       -0.33920       -0.00539
O         -0.29097        0.35120       -0.00730
8
mol_index=2; JUKRIS  **FRAG**        1  0002 L01_c2  index=2;filename: many-mols.xyz  (Original)
C          0.06661       -0.14158       -0.13607
C         -0.18529       -0.01505       -0.08098
C         -0.07034        0.13352        0.13939
C          0.19152        0.01979        0.07697
O          0.14480       -0.31423       -0.29769
O         -0.15206        0.29540        0.31143
O         -0.41488       -0.02453       -0.18524
O          0.41966        0.04668        0.17220
8
mol_index=3; JUKROY  **FRAG**        1  0003 L01_c2  index=3;filename: many-mols.xyz  (Original)
C         -0.09813       -0.10599       -0.14388
C         -0.10988       -0.10362        0.15207
C          0.10386        0.10828        0.14291
C          0.10638        0.09711       -0.14884
O         -0.22122       -0.23225       -0.31866
O          0.22724        0.23487        0.32054
O         -0.23969       -0.21634        0.31994
O          0.23144        0.21795       -0.32407
8
mol_index=4; XUVBEX  **FRAG**        1  0004 L01_c2  index=4;filename: many-mols.xyz  (Original)
C          0.04099       -0.07975        0.18855
C         -0.00317       -0.18298       -0.07523
C         -0.03244        0.07856       -0.18993
C         -0.00178        0.19188        0.08297
O          0.09377       -0.17772        0.41099
O         -0.06752        0.17199       -0.41433
O         -0.01594       -0.41952       -0.18091
O         -0.01392        0.41754        0.17788
8
mol_index=5; ACIQIN  **FRAG**        1  0005 L01_c2  index=5;filename: many-mols.xyz  (Original)
C         -0.11772       -0.13835       -0.09023
C          0.03065       -0.12834        0.15730
C          0.11389        0.14045        0.09433
C         -0.03671        0.13044       -0.15489
O         -0.24875       -0.32416       -0.20435
O          0.25703        0.31964        0.19807
O          0.07512       -0.29501        0.33993
O         -0.07351        0.29533       -0.34018
8
mol_index=1; JUKREO  **FRAG**        1  0006 L01_c2  index=6;filename: many-mols.xyz  (Original)
C          0.09142        0.07636        0.16316
C          0.13665       -0.15076       -0.00130
C         -0.09509       -0.08070       -0.16863
C         -0.13216        0.16273       -0.00279
O          0.19705        0.16980        0.37644
O         -0.21003       -0.18943       -0.35418
O          0.30314       -0.33920       -0.00539
O         -0.29097        0.35120       -0.00730
8
mol_index=2; JUKRIS  **FRAG**        1  0007 L01_c2  index=7;filename: many-mols.xyz  (Original)
C          0.06661       -0.14158       -0.13607
C         -0.18529       -0.01505       -0.08098
C         -0.07034        0.13352        0.13939
C          0.19152        0.01979        0.07697
O          0.14480       -0.31423       -0.29769
O         -0.15206        0.29540        0.31143
O         -0.41488       -0.02453       -0.18524
O          0.41966        0.04668        0.17220
8
mol_index=3; JUKROY  **FRAG**        1  0008 L01_c2  index=8;filename: many-mols.xyz  (Original)
C         -0.09813       -0.10599       -0.14388
C         -0.10988       -0.10362        0.15207
C          0.10386        0.10828        0.14291
C          0.10638        0.09711       -0.14884
O         -0.22122       -0.23225       -0.31866
O          0.22724        0.23487        0.32054
O         -0.23969       -0.21634        0.31994
O          0.23144        0.21795       -0.32407
8
mol_index=4; XUVBEX  **FRAG**        1  0009 L01_c2  index=9;filename: many-mols.xyz  (Original)
C          0.04099       -0.07975        0.18855
C         -0.00317       -0.18298       -0.07523
C         -0.03244        0.07856       -0.18993
C         -0.00178        0.19188        0.08297
O          0.09377       -0.17772        0.41099
O         -0.06752        0.17199       -0.41433
O         -0.01594       -0.41952       -0.18091
O         -0.01392        0.41754        0.17788
8
mol_index=5; ACIQIN  **FRAG**        1  0010 L01_c2  index=10;filename: many-mols.xyz  (Original)
C         -0.11772       -0.13835       -0.09023
C          0.03065       -0.12834        0.15730
C          0.11389        0.14045        0.09433
C         -0.03671        0.13044       -0.15489
O         -0.24875       -0.32416       -0.20435
O          0.25703        0.31964        0.19807
O          0.07512       -0.29501        0.33993
O         -0.07351        0.29533       -0.34018
8
mol_index=1; JUKREO  **FRAG**        1  0011 L01_c2  index=11;filename: many-mols.xyz  (Original)
C          0.09142        0.07636        0.16316
C          0.13665       -0.15076       -0.00130
C         -0.09509       -0.08070       -0.16863
C         -0.13216        0.16273       -0.00279
O          0.19705        0.16980        0.37644
O         -0.21003       -0.18943       -0.35418
O          0.30314       -0.33920       -0.00539
O         -0.29097        0.35120       -0.00730
8
mol_index=2; JUKRIS  **FRAG**        1  0012 L01_c2  index=12;filename: many-mols.xyz  (Original)
C          0.06661       -0.14158       -0.13607
C         -0.18529       -0.01505       -0.08098
C         -0.07034        0.13352        0.13939
C          0.19152        0.01979        0.07697
O          0.14480       -0.31423       -0.29769
O         -0.15206        0.29540        0.31143
O         -0.41488       -0.02453       -0.18524
O          0.41966        0.04668        0.17220
8
mol_index=3; JUKROY  **FRAG**        1  0013 L01_c2  index=13;filename: many-mols.xyz  (Original)
C         -0.09813       -0.10599       -0.14388
C         -0.10988       -0.10362        0.15207
C          0.10386        0.10828        0.14291
C          0.10638        0.09711       -0.14884
O         -0.22122       -0.23225       -0.31866
O          0.22724        0.23487        0.32054
O         -0.23969       -0.21634        0.31994
O          0.23144        0.21795       -0.32407
8
mol_index=4; XUVBEX  **FRAG**        1  0014 L01_c2  index=14;filename: many-mols.xyz  (Original)
C          0.04099       -0.07975        0.18855
C         -0.00317       -0.18298       -0.07523
C         -0.03244        0.07856       -0.18993
C         -0.00178        0.19188        0.08297
O          0.09377       -0.17772        0.41099
O         -0.06752        0.17199       -0.41433
O         -0.01594       -0.41952       -0.18091
O         -0.01392        0.41754        0.17788
8
mol_index=5; ACIQIN  **FRAG**        1  0015 L01_c2  index=15;filename: many-mols.xyz  (Original)
C         -0.11772       -0.13835       -0.09023
C          0.03065       -0.12834        0.15730
C          0.11389        0.14045        0.09433
C         -0.03671        0.13044       -0.15489
O         -0.24875       -0.32416       -0.20435
O          0.25703        0.31964        0.19807
O          0.07512       -0.29501        0.33993
O         -0.07351        0.29533       -0.34018
8
mol_index=1; JUKREO  **FRAG**        1  0016 L01_c2  index=16;filename: many-mols.xyz  (Original)
C          0.09142        0.07636        0.16316
C          0.13665       -0.15076       -0.00130
C         -0.09509       -0.08070       -0.16863
C         -0.13216        0.16273       -0.00279
O          0.19705        0.16980        0.37644
O         -0.21003       -0.18943       -0.35418
O          0.30314       -0.33920       -0.00539
O         -0.29097        0.35120       -0.00730
8
mol_index=2; JUKRIS  **FRAG**        1  0017 L01_c2  index=17;filename: many-mols.xyz  (Original)
C          0.06661       -0.14158       -0.13607
C         -0.18529       -0.01505       -0.08098
C         -0.07034        0.13352        0.13939
C          0.19152        0.01979        0.07697
O          0.14480       -0.31423       -0.29769
O         -0.15206        0.29540        0.31143
O         -0.41488       -0.02453       -0.18524
O          0.41966        0.04668        0.17220
8
mol_index=3; JUKROY  **FRAG**        1  0018 L01_c2  index=18;filename: many-mols.xyz  (Original)
C         -0.09813       -0.10599       -0.14388
C         -0.10988       -0.10362        0.15207
C          0.10386        0.10828        0.14291
C          0.10638        0.09711       -0.14884
O         -0.22122       -0.23225       -0.31866
O          0.22724        0.23487        0.32054
O         -0.23969       -0.21634        0.31994
O          0.23144        0.21795       -0.32407
8
mol_index=4; XUVBEX  **FRAG**        1  0019 L01_c2  index=19;filename: many-mols.xyz  (Original)
C          0.04099       -0.07975        0.18855
C         -0.00317       -0.18298       -0.07523
C         -0.03244        0.07856       -0.18993
C         -0.00178        0.19188        0.08297
O          0.09377       -0.17772        0.41099
O         -0.06752        0.17199       -0.41433
O         -0.01594       -0.41952       -0.18091
O         -0.01392        0.41754        0.17788
8
mol_index=5; ACIQIN  **FRAG**        1  0020 L01_c2  index=20;filename: many-mols.xyz  (Original)
C         -0.11772       -0.13835       -0.09023
C          0.03065       -0.12834        0.15730
C          0.11389        0.14045        0.09433
C         -0.03671        0.13044       -0.15489
O         -0.24875       -0.32416       -0.20435
O          0.25703        0.31964        0.19807
O          0.07512       -0.29501        0.33993
O         -0.07351        0.29533       -0.34018
8
mol_index=1; JUKREO  **FRAG**        1  0021 L01_c2  index=21;filename: many-mols.xyz  (Original)
C          0.09142        0.07636        0.16316
C          0.13665       -0.15076       -0.00130
C         -0.09509       -0.08070       -0.16863
C         -0.13216        0.16273       -0.00279
O          0.19705        0.16980        0.37644
O         -0.21003       -0.18943       -0.35418
O          0.30314       -0.33920       -0.00539
O         -0.29097        0.35120       -0.00730
8
mol_index=2; JUKRIS  **FRAG**        1  0022 L01_c2  index=22;filename: many-mols.xyz  (Original)
C          0.06661       -0.14158       -0.13607
C         -0.18529       -0.01505       -0.08098
C         -0.07034        0.13352        0.13939
C          0.19152        0.01979        0.07697
O          0.14480       -0.31423       -0.29769
O         -0.15206        0.29540        0.31143
O         -0.41488       -0.02453       -0.18524
O          0.41966        0.04668        0.17220
8
mol_index=3; JUKROY  **FRAG**        1  0023 L01_c2  index=23;filename: many-mols.xyz  (Original)
C         -0.09813       -0.10599       -0.14388
C         -0.10988       -0.10362        0.15207
C          0.10386        0.10828        0.14291
C          0.10638        0.09711       -0.14884
O         -0.22122       -0.23225       -0.31866
O          0.22724        0.23487        0.32054
O         -0.23969       -0.21634        0.31994
O          0.23144        0.21795       -0.32407
8
mol_index=4; XUVBEX  **FRAG**        1  0024 L01_c2  index=24;filename: many-mols.xyz  (Original)
C          0.04099       -0.07975        0.18855
C         -0.00317       -0.18298       -0.07523
C         -0.03244        0.07856       -0.18993
C         -0.00178        0.19188        0.08297
O          0.09377       -0.17772        0.41099
O         -0.06752        0.17199       -0.41433
O         -0.01594       -0.41952       -0.18091
O         -0.01392        0.41754        0.17788
8
mol_index=5; ACIQIN  **FRAG**        1  0025 L01_c2  index=25;filename: many-mols.xyz  (Original)
C         -0.11772       -0.13835       -0.09023
C          0.03065       -0.12834        0.15730
C          0.11389        0.14045        0.09433
C         -0.03671        0.13044       -0.15489
O         -0.24875       -0.32416       -0.20435
O          0.25703        0.31964        0.19807
O          0.07512       -0.29501        0.33993
O         -0.07351        0.29533       -0.34018
8
mol_index=1; JUKREO  **FRAG**        1  0026 L01_c2  index=26;filename: many-mols.xyz  (Original)
C          0.09142        0.07636        0.16316
C          0.13665       -0.15076       -0.00130
C         -0.09509       -0.08070       -0.16863
C         -0.13216        0.16273       -0.00279
O          0.19705        0.16980        0.37644
O         -0.21003       -0.18943       -0.35418
O          0.30314       -0.33920       -0.00539
O         -0.29097        0.35120       -0.00730
8
mol_index=2; JUKRIS  **FRAG**        1  0027 L01_c2  index=27;filename: many-mols.xyz  (Original)
C          0.06661       -0.14158       -0.13607
C         -0.18529       -0.01505       -0.08098
C         -0.07034        0.13352        0.13939
C          0.19152        0.01979        0.07697
O          0.14480       -0.31423       -0.29769
O         -0.15206        0.29540        0.31143
O         -0.41488       -0.02453       -0.18524
O          0.41966        0.04668        0.17220
8
mol_index=3; JUKROY  **FRAG**        1  0028 L01_c2  index=28;filename: many-mols.xyz  (Original)
C         -0.09813       -0.10599       -0.14388
C         -0.10988       -0.10362        0.15207
C          0.10386        0.10828        0.14291
C          0.10638        0.09711       -0.14884
O         -0.22122       -0.23225       -0.31866
O          0.22724        0.23487        0.32054
O         -0.23969       -0.21634        0.31994
O          0.23144        0.21795       -0.32407
8
mol_index=4; XUVBEX  **FRAG**        1  0029 L01_c2  index=29;filename: many-mols.xyz  (Original)
C          0.04099       -0.07975        0.18855
C         -0.00317       -0.18298       -0.07523
C         -0.03244        0.07856       -0.18993
C         -0.00178        0.19188        0.08297
O          0.09377       -0.17772        0.41099
O         -0.06752        0.17199       -0.41433
O         -0.01594       -0.41952       -0.18091
O         -0.01392        0.41754        0.17788
8
mol_index=5; ACIQIN  **FRAG**        1  0030 L01_c2  index=30;filename: many-mols.xyz  (Original)
C         -0.11772       -0.13835       -0.09023
C          0.03065       -0.12834        0.15730
C          0.11389        0.14045        0.09433
C         -0.03671        0.13044       -0.15489
O         -0.24875       -0.32416       -0.20435
O          0.25703        0.31964        0.19807
O          0.07512       -0.29501        0.33993
O         -0.07351        0.29533       -0.34018
8
mol_index=1; JUKREO  **FRAG**        1  0031 L01_c2  index=31;filename: many-mols.xyz  (Original)
C          0.09142        0.07636        0.16316
C          0.13665       -0.15076       -0.00130
C         -0.09509       -0.08070       -0.16863
C         -0.13216        0.16273       -0.00279
O          0.19705        0.16980        0.37644
O         -0.21003       -0.18943       -0.35418
O          0.30314       -0.33920       -0.00539
O         -0.29097        0.35120       -0.00730
8
mol_index=2; JUKRIS  **FRAG**        1  0032 L01_c2  index=32;filename: many-mols.xyz  (Original)
C          0.06661       -0.14158       -0.13607
C         -0.18529       -0.01505       -0.08098
C         -0.07034        0.13352        0.13939
C          0.19152        0.01979        0.07697
O          0.14480       -0.31423       -0.29769
O         -0.15206        0.29540        0.31143
O         -0.41488       -0.02453       -0.18524
O          0.41966        0.04668        0.17220
8
mol_index=3; JUKROY  **FRAG**        1  0033 L01_c2  index=33;filename: many-mols.xyz  (Original)
C         -0.09813       -0.10599       -0.14388
C         -0.10988       -0.10362        0.15207
C          0.10386        0.10828        0.14291
C          0.10638        0.09711       -0.14884
O         -0.22122       -0.23225       -0.31866
O          0.22724        0.23487        0.32054
O         -0.23969       -0.21634        0.31994
O          0.23144        0.21795       -0.32407
8
mol_index=4; XUVBEX  **FRAG**        1  0034 L01_c2  index=34;filename: many-mols.xyz  (Original)
C          0.04099       -0.07975        0.18855
C         -0.00317       -0.18298       -0.07523
C         -0.03244        0.07856       -0.18993
C         -0.00178        0.19188        0.08297
O          0.09377       -0.17772        0.41099
O         -0.06752        0.17199       -0.41433
O         -0.01594       -0.41952       -0.18091
O         -0.01392        0.41754        0.17788
8
mol_index=5; ACIQIN  **FRAG**        1  0035 L01_c2  index=35;filename: many-mols.xyz  (Original)
C         -0.11772       -0.13835       -0.09023
C          0.03065       -0.12834        0.15730
C          0.11389        0.14045        0.09433
C         -0.03671        0.13044       -0.15489
O         -0.24875       -0.32416       -0.20435
O          0.25703        0.31964        0.19807
O          0.07512       -0.29501        0.33993
O         -0.07351        0.29533       -0.34018
8
mol_index=1; JUKREO  **FRAG**        1  0036 L01_c2  index=36;filename: many-mols.xyz  (Original)
C          0.09142        0.07636        0.16316
C          0.13665       -0.15076       -0.00130
C         -0.09509       -0.08070       -0.16863
C         -0.13216        0.16273       -0.00279
O          0.19705        0.16980        0.37644
O         -0.21003       -0.18943       -0.35418
O          0.30314       -0.33920       -0.00539
O         -0.29097        0.35120       -0.00730
8
mol_index=2; JUKRIS  **FRAG**        1  0037 L01_c2  index=37;filename: many-mols.xyz  (Original)
C          0.06661       -0.14158       -0.13607
C         -0.18529       -0.01505       -0.08098
C         -0.07034        0.13352        0.13939
C          0.19152        0.01979        0.07697
O          0.14480       -0.31423       -0.29769
O         -0.15206        0.29540        0.31143
O         -0.41488       -0.02453       -0.18524
O          0.41966        0.04668        0.17220
8
mol_index=3; JUKROY  **FRAG**        1  0038 L01_c2  index=38;filename: many-mols.xyz  (Original)
C         -0.09813       -0.10599       -0.14388
C         -0.10988       -0.10362        0.15207
C          0.10386        0.10828        0.14291
C          0.10638        0.09711       -0.14884
O         -0.22122       -0.23225       -0.31866
O          0.22724        0.23487        0.32054
O         -0.23969       -0.21634        0.31994
O          0.23144        0.21795       -0.32407
8
mol_index=4; XUVBEX  **FRAG**        1  0039 L01_c2  index=39;filename: many-mols.xyz  (Original)
C          0.04099       -0.07975        0.18855
C         -0.00317       -0.18298       -0.07523
C         -0.03244        0.07856       -0.18993
C         -0.00178        0.19188        0.08297
O          0.09377       -0.17772        0.41099
O         -0.06752        0.17199       -0.41433
O         -0.01594       -0.41952       -0.18091
O         -0.01392        0.41754        0.17788
8
mol_index=5; ACIQIN  **FRAG**        1  0040 L01_c2  index=40;filename: many-mols.xyz  (Original)
C         -0.11772       -0.13835       -0.09023
C          0.03065       -0.12834        0.15730
C          0.11389        0.14045        0.09433
C         -0.03671        0.13044       -0.15489
O         -0.24875       -0.32416       -0.20435
O          0.25703        0.31964        0.19807
O          0.07512       -0.29501        0.33993
O         -0.07351        0.29533       -0.34018
8
mol_index=1; JUKREO  **FRAG**        1  0041 L01_c2  index=41;filename: many-mols.xyz  (Original)
C          0.09142        0.07636        0.16316
C          0.13665       -0.15076       -0.00130
C         -0.09509       -0.08070       -0.16863
C         -0.13216        0.16273       -0.00279
O          0.19705        0.16980        0.37644
O         -0.21003       -0.18943       -0.35418
O          0.30314       -0.33920       -0.00539
O         -0.29097        0.35120       -0.00730
8
mol_index=2; JUKRIS  **FRAG**        1  0042 L01_c2  index=42;filename: many-mols.xyz  (Original)
C          0.06661       -0.14158       -0.13607
C         -0.18529       -0.01505       -0.08098
C         -0.07034        0.13352        0.13939
C          0.19152        0.01979        0.07697
O          0.14480       -0.31423       -0.29769
O         -0.15206        0.29540        0.31143
O         -0.41488       -0.02453       -0.18524
O          0.41966        0.04668        0.17220
8
mol_index=3; JUKROY  **FRAG**        1  0043 L01_c2  index=43;filename: many-mols.xyz  (Original)
C         -0.09813       -0.10599       -0.14388
C         -0.10988       -0.10362        0.15207
C          0.10386        0.10828        0.14291
C          0.10638        0.09711       -0.14884
O         -0.22122       -0.23225       -0.31866
O          0.22724        0.23487        0.32054
O         -0.23969       -0.21634        0.31994
O          0.23144        0.21795       -0.32407
8
mol_index=4; XUVBEX  **FRAG**        1  0044 L01_c2  index=44;filename: many-mols.xyz  (Original)
C          0.04099       -0.07975        0.18855
C         -0.00317       -0.18298       -0.07523
C         -0.03244        0.07856       -0.18993
C         -0.00178        0.19188        0.08297
O          0.09377       -0.17772        0.41099
O         -0.06752        0.17199       -0.41433
O         -0.01594       -0.41952       -0.18091
O         -0.01392        0.41754        0.17788
8
mol_index=5; ACIQIN  **FRAG**        1  0045 L01_c2  index=45;filename: many-mols.xyz  (Original)
C         -0.11772       -0.13835       -0.09023
C          0.03065       -0.12834        0.15730
C          0.11389        0.14045        0.09433
C         -0.03671        0.13044       -0.15489
O         -0.24875       -0.32416       -0.20435
O          0.25703        0.31964        0.19807
O          0.07512       -0.29501        0.33993
O         -0.07351        0.29533       -0.34018
8
mol_index=1; JUKREO  **FRAG**        1  0046 L01_c2  index=46;filename: many-mols.xyz  (Original)
C          0.09142        0.07636        0.16316
C          0.13665       -0.15076       -0.00130
C         -0.09509       -0.08070       -0.16863
C         -0.13216        0.16273       -0.00279
O          0.19705        0.16980        0.37644
O         -0.21003       -0.18943       -0.35418
O          0.30314       -0.33920       -0.00539
O         -0.29097        0.35120       -0.00730
8
mol_index=2; JUKRIS  **FRAG**        1  0047 L01_c2  index=47;filename: many-mols.xyz  (Original)
C          0.06661       -0.14158       -0.13607
C         -0.18529       -0.01505       -0.08098
C         -0.07034        0.13352        0.13939
C          0.19152        0.01979        0.07697
O          0.14480       -0.31423       -0.29769
O         -0.15206        0.29540        0.31143
O         -0.41488       -0.02453       -0.18524
O          0.41966        0.04668        0.17220
8
mol_index=3; JUKROY  **FRAG**        1  0048 L01_c2  index=48;filename: many-mols.xyz  (Original)
C         -0.09813       -0.10599       -0.14388
C         -0.10988       -0.10362        0.15207
C          0.10386        0.10828        0.14291
C          0.10638        0.09711       -0.14884
O         -0.22122       -0.23225       -0.31866
O          0.22724        0.23487        0.32054
O         -0.23969       -0.21634        0.31994
O          0.23144        0.21795       -0.32407
8
mol_index=4; XUVBEX  **FRAG**        1  0049 L01_c2  index=49;filename: many-mols.xyz  (Original)
C          0.04099       -0.07975        0.18855
C         -0.00317       -0.18298       -0.07523
C         -0.03244        0.07856       -0.18993
C         -0.00178        0.19188        0.08297
O          0.09377       -0.17772        0.41099
O         -0.06752        0.17199       -0.41433
O         -0.01594       -0.41952       -0.18091
O         -0.01392        0.41754        0.17788
8
mol_index=5; ACIQIN  **FRAG**        1  0050 L01_c2  index=50;filename: many-mols.xyz  (Original)
C         -0.11772       -0.13835       -0.09023
C          0.03065       -0.12834        0.15730
C          0.11389        0.14045        0.09433
C         -0.03671        0.13044       -0.15489
O         -0.24875       -0.32416       -0.20435
O          0.25703        0.31964        0.19807
O          0.07512       -0.29501        0.33993
O         -0.07351        0.29533       -0.34018
8
mol_index=1; JUKREO  **FRAG**        1  0051 L01_c2  index=51;filename: many-mols.xyz  (Original)
C          0.09142        0.07636        0.16316
C          0.13665       -0.15076       -0.00130
C         -0.09509       -0.08070       -0.16863
C         -0.13216        0.16273       -0.00279
O          0.19705        0.16980        0.37644
O         -0.21003       -0.18943       -0.35418
O          0.30314       -0.33920       -0.00539
O         -0.29097        0.35120       -0.00730
8
mol_index=2; JUKRIS  **FRAG**        1  0052 L01_c2  index=52;filename: many-mols.xyz  (Original)
C          0.06661       -0.14158       -0.13607
C         -0.18529       -0.01505       -0.08098
C         -0.07034        0.13352        0.13939
C          0.19152        0.01979        0.07697
O          0.14480       -0.31423       -0.29769
O         -0.15206        0.29540        0.31143
O         -0.41488       -0.02453       -0.18524
O          0.41966        0.04668        0.17220
8
mol_index=3; JUKROY  **FRAG**        1  0053 L01_c2  index=53;filename: many-mols.xyz  (Original)
C         -0.09813       -0.10599       -0.14388
C         -0.10988       -0.10362        0.15207
C          0.10386        0.10828        0.14291
C          0.10638        0.09711       -0.14884
O         -0.22122       -0.23225       -0.31866
O          0.22724        0.23487        0.32054
O         -0.23969       -0.21634        0.31994
O          0.23144        0.21795       -0.32407
8
mol_index=4; XUVBEX  **FRAG**        1  0054 L01_c2  index=54;filename: many-mols.xyz  (Original)
C          0.04099       -0.07975        0.18855
C         -0.00317       -0.18298       -0.07523
C         -0.03244        0.07856       -0.18993
C         -0.00178        0.19188        0.08297
O          0.09377       -0.17772        0.41099
O         -0.06752        0.17199       -0.41433
O         -0.01594       -0.41952       -0.18091
O         -0.01392        0.41754        0.17788
8
mol_index=5; ACIQIN  **FRAG**        1  0055 L01_c2  index=55;filename: many-mols.xyz  (Original)
C         -0.11772       -0.13835       -0.09023
C          0.03065       -0.12834        0.15730
C          0.11389        0.14045        0.09433
C         -0.03671        0.13044       -0.15489
O         -0.24875       -0.32416       -0.20435
O          0.25703        0.31964        0.19807
O          0.07512       -0.29501        0.33993
O         -0.07351        0.29533       -0.34018
8
mol_index=1; JUKREO  **FRAG**        1  0056 L01_c2  index=56;filename: many-mols.xyz  (Original)
C          0.09142        0.07636        0.16316
C          0.13665       -0.15076       -0.00130
C         -0.09509       -0.08070       -0.16863
C         -0.13216        0.16273       -0.00279
O          0.19705        0.16980        0.37644
O         -0.21003       -0.18943       -0.35418
O          0.30314       -0.33920       -0.00539
O         -0.29097        0.35120       -0.00730
8
mol_index=2; JUKRIS  **FRAG**        1  0057 L01_c2  index=57;filename: many-mols.xyz  (Original)
C          0.06661       -0.14158       -0.13607
C         -0.18529       -0.01505       -0.08098
C         -0.07034        0.13352        0.13939
C          0.19152        0.01979        0.07697
O          0.14480       -0.31423       -0.29769
O         -0.15206        0.29540        0.31143
O         -0.41488       -0.02453       -0.18524
O          0.41966        0.04668        0.17220
8
mol_index=3; JUKROY  **FRAG**        1  0058 L01_c2  index=58;filename: many-mols.xyz  (Original)
C         -0.09813       -0.10599       -0.14388
C         -0.10988       -0.10362        0.15207
C          0.10386        0.10828        0.14291
C          0.10638        0.09711       -0.14884
O         -0.22122       -0.23225       -0.31866
O          0.22724        0.23487        0.32054
O         -0.23969       -0.21634        0.31994
O          0.23144        0.21795       -0.32407
8
mol_index=4; XUVBEX  **FRAG**        1  0059 L01_c2  index=59;filename: many-mols.xyz  (Original)
C          0.04099       -0.07975        0.18855
C         -0.00317       -0.18298       -0.07523
C         -0.03244        0.07856       -0.18993
C         -0.00178        0.19188        0.08297
O          0.09377       -0.17772        0.41099
O         -0.06752        0.17199       -0.41433
O         -0.01594       -0.41952       -0.18091
O         -0.01392        0.41754        0.17788
8
mol_index=5; ACIQIN  **FRAG**        1  0060 L01_c2  index=60;filename: many-mols.xyz  (Original)
C         -0.11772       -0.13835       -0.09023
C          0.03065       -0.12834        0.15730
C          0.11389        0.14045        0.09433
C         -0.03671        0.13044       -0.15489
O         -0.24875       -0.32416       -0.20435
O          0.25703        0.31964        0.19807
O          0.07512       -0.29501        0.33993
O         -0.07351        0.29533       -0.34018
8
mol_index=1; JUKREO  **FRAG**        1  0061 L01_c2  index=61;filename: many-mols.xyz  (Original)
C          0.09142        0.07636        0.16316
C          0.13665       -0.15076       -0.00130
C         -0.09509       -0.08070       -0.16863
C         -0.13216        0.16273       -0.00279
O          0.19705        0.16980        0.37644
O         -0.21003       -0.18943       -0.35418
O          0.30314       -0.33920       -0.00539
O         -0.29097        0.35120       -0.00730
8
mol_index=2; JUKRIS  **FRAG**        1  0062 L01_c2  index=62;filename: many-mols.xyz  (Original)
C          0.06661       -0.14158       -0.13607
C         -0.18529       -0.01505       -0.08098
C         -0.07034        0.13352        0.13939
C          0.19152        0.01979        0.07697
O          0.14480       -0.31423       -0.29769
O         -0.15206        0.29540        0.31143
O         -0.41488       -0.02453       -0.18524
O          0.41966        0.04668        0.17220
8
mol_index=3; JUKROY  **FRAG**        1  0063 L01_c2  index=63;filename: many-mols.xyz  (Original)
C         -0.09813       -0.10599       -0.14388
C         -0.10988       -0.10362        0.15207
C          0.10386        0.10828        0.14291
C          0.10638        0.09711       -0.14884
O         -0.22122       -0.23225       -0.31866
O          0.22724        0.23487        0.32054
O         -0.23969       -0.21634        0.31994
O          0.23144        0.21795       -0.32407
8
mol_index=4; XUVBEX  **FRAG**        1  0064 L01_c2  index=64;filename: many-mols.xyz  (Original)
C          0.04099       -0.07975        0.18855
C         -0.00317       -0.18298       -0.07523
C         -0.03244        0.07856       -0.18993
C         -0.00178        0.19188        0.08297
O          0.09377       -0.17772        0.41099
O         -0.06752        0.17199       -0.41433
O         -0.01594       -0.41952       -0.18091
O         -0.01392        0.41754        0.17788
8
mol_index=5; ACIQIN  **FRAG**        1  0065 L01_c2  index=65;filename: many-mols.xyz  (Original)
C         -0.11772       -0.13835       -0.09023
C          0.03065       -0.12834        0.15730
C          0.11389        0.14045        0.09433
C         -0.03671        0.13044       -0.15489
O         -0.24875       -0.32416       -0.20435
O          0.25703        0.31964        0.19807
O          0.07512       -0.29501        0.33993
O         -0.07351        0.29533       -0.34018
