12
mol_index=1; GUSFAD  **FRAG**        1
O   4.00660             5.67439             7.89600             
C   3.35680             4.50834             7.39685             
C   2.89242             3.62019             8.54726             
O   4.01770             3.36850             9.34827             
C   3.68328             2.73066             10.56999            
C   3.39959             3.74431             11.63364            
O   4.52962             4.59799             11.71564            
C   4.28079             5.87264             12.32769            
C   3.61513             6.80596             11.37694            
O   4.48841             6.94525             10.27525            
C   3.91309             7.63653             9.14742             
C   3.11748             6.68425             8.28699             
