12
mol_index=13; ABIMUV  **FRAG**        1
O   10.84192            10.34456            2.41090             
C   9.95492             10.79208            1.43113             
C   8.55175             10.52443            1.94382             
O   8.39843             9.13309             2.24262             
C   8.06998             8.34078             1.13704             
C   8.27384             6.89286             1.54436             
O   9.59756             6.68395             2.01301             
C   10.55613            6.46481             1.00808             
C   11.92958            6.62340             1.64029             
O   12.07345            7.90560             2.21746             
C   12.44509            8.91566             1.30374             
C   12.19179            10.23614            1.99571             
