12
mol_index=21; ANEBAX  **FRAG**        2
O   6.79497             11.45065            11.55884            
C   5.48197             11.89507            11.58115            
C   5.33922             12.96670            12.52290            
O   5.84855             12.67313            13.83882            
C   4.93986             11.99996            14.67864            
C   5.64634             11.34572            15.72802            
O   6.66353             10.42203            15.20539            
C   6.14769             9.17661             14.87807            
C   7.21154             8.50231             14.13891            
O   7.61803             9.19233             12.90752            
C   6.75511             9.02922             11.85022            
C   6.96189             10.12728            10.92747            
