12
mol_index=22; APEJUB  **FRAG**        1
O   -0.40147            14.99981            9.78563             
C   0.01870             16.16500            9.15868             
C   1.33480             16.24730            8.77977             
O   1.83914             14.97718            8.39338             
C   3.24003             14.84083            8.64516             
C   3.55651             13.42127            8.63394             
O   2.67493             12.65669            9.43165             
C   2.93433             12.62640            10.83636            
C   1.85206             12.57403            11.66274            
O   0.63995             12.98830            11.20406            
C   0.14871             14.10954            11.86466            
C   -0.50294            15.04656            11.19159            
