12
mol_index=25; AREYUR  **FRAG**        1
O   5.91197             9.01484             5.92434             
C   4.86008             9.88080             5.50799             
C   5.37560             10.79660            4.45728             
O   5.89904             10.11335            3.33164             
C   4.91947             9.72104             2.36488             
C   5.52880             8.70363             1.46795             
O   6.00604             7.56749             2.17661             
C   4.99742             6.65682             2.58214             
C   5.58028             5.74298             3.60882             
O   6.02574             6.45456             4.75850             
C   4.99742             6.77505             5.67947             
C   5.49005             7.83326             6.59509             
