12
mol_index=28; AREZAY  **FRAG**        2
O   6.10612             13.85029            4.79156             
C   5.00867             14.00845            4.39028             
C   4.19050             14.83609            5.16415             
O   4.69006             16.18684            5.52918             
C   4.57205             17.02921            4.39783             
C   5.66032             18.24979            4.61300             
O   6.92691             17.75198            4.87347             
C   7.46056             17.51302            3.43521             
C   8.66683             16.69030            3.74099             
O   8.36526             15.42796            4.16982             
C   7.69657             14.23931            3.37104             
C   7.38189             13.31343            4.19776             
