12
mol_index=29; AREZAY  **FRAG**        3
O   0.17963             18.54205            8.42571             
C   -1.38591            18.79991            9.07500             
C   -1.66519            20.11873            8.99950             
O   -1.66912            20.96602            8.11239             
C   -1.62847            22.41991            8.32756             
C   -0.36844            22.93565            8.68241             
O   0.46415             22.47149            7.79152             
C   1.73730             22.55007            8.31624             
C   2.17523             21.54807            8.93911             
O   2.28668             20.37660            8.05765             
C   2.33782             18.93253            8.73526             
C   0.79457             18.62800            9.46005             
