12
mol_index=3; GUSPIV  **FRAG**        1
O   4.40910             -6.26168            -2.26501            
C   3.53864             -7.13333            -3.16277            
C   2.20811             -6.92191            -2.52583            
O   1.97896             -7.37126            -1.34169            
C   1.86422             -8.85239            -1.18921            
C   2.04915             -9.01156            0.27243             
O   3.29603             -8.63847            0.81118             
C   4.39912             -9.52311            0.46462             
C   5.61132             -8.67837            0.72860             
O   5.69773             -7.53288            -0.11024            
C   6.06932             -7.81853            -1.54168            
C   5.78531             -6.57340            -2.21115            
