12
mol_index=45; AZICES  **FRAG**        1
O   1.78259             3.81700             -1.11336            
C   0.46008             3.46117             -1.08263            
C   0.41318             1.99570             -1.01395            
O   1.01740             1.43972             0.22231             
C   0.22919             1.59188             1.34651             
C   1.10846             1.33554             2.49783             
O   2.19948             2.32227             2.62977             
C   1.79669             3.55130             3.11777             
C   2.85052             4.52398             2.77436             
O   2.97976             4.72765             1.30314             
C   1.97205             5.46858             0.72838             
C   2.03009             5.26257             -0.71031            
