12
mol_index=46; AZICIW  **FRAG**        1
O   8.97098             1.99733             4.75392             
C   8.68262             1.05404             3.73111             
C   7.28012             0.56188             3.92928             
O   6.32771             1.63611             3.85789             
C   5.96042             2.00155             2.52399             
C   5.37466             3.36171             2.54956             
O   6.26962             4.32391             3.09399             
C   7.29595             4.77035             2.18412             
C   8.29635             5.52355             3.00556             
O   8.89949             4.70787             4.00279             
C   9.93014             3.86084             3.51057             
C   10.14447            2.79162             4.50993             
