12
mol_index=8; LUQHIQ  **FRAG**        1
O   3.43289             6.50512             8.42270             
C   2.91200             7.40390             9.42107             
C   4.03812             8.16834             10.05944            
O   4.96869             7.18691             10.54111            
C   6.22347             7.73249             10.95759            
C   7.15139             7.88467             9.78385             
O   7.23444             6.59061             9.16571             
C   7.80500             6.61395             7.84456             
C   6.73665             6.90027             6.81867             
O   5.70170             5.92580             7.04586             
C   4.48171             6.18508             6.33921             
C   3.59694             7.11087             7.13338             
