6
mol_index=14; HOCLEQ  **FRAG**        1
B   5.62283             6.58121             5.47446             
B   3.96922             6.91230             5.96447             
B   5.06227             6.06286             3.93705             
B   3.40360             6.40530             4.40572             
B   4.61826             7.61690             4.52540             
B   4.40370             5.38926             5.35185             
