6
mol_index=19; LAKYEB  **FRAG**        1
B   3.72120             4.55849             2.11444             
B   2.68667             4.17937             3.45257             
B   2.30472             4.85182             1.10319             
B   1.26415             4.50062             2.46378             
B   2.45155             3.36724             1.93671             
B   2.50036             5.67093             2.60270             
