6
mol_index=27; PUBFUN  **FRAG**        1
B   3.41024             0.80531             3.98192             
B   4.73908             1.60187             4.73385             
B   3.18255             2.10860             2.86134             
B   4.48636             2.99950             3.54273             
B   4.67397             1.26049             2.90525             
B   3.25761             2.40913             4.55418             
