6
mol_index=3; COVLUV  **FRAG**        1
B   0.42388             7.14789             -5.41352            
B   1.42075             6.08151             -4.49409            
B   -0.42808            5.78949             -6.06434            
B   0.56879             4.72311             -5.14492            
B   1.28958             5.88030             -6.20773            
B   -0.29690            5.99070             -4.35071            
