6
mol_index=37; RUJWID  **FRAG**        2
B   3.10876             -0.20701            14.42855            
B   3.89255             1.01645             15.33012            
B   4.58195             -1.18557            14.45965            
B   5.37503             0.04471             15.38937            
B   3.84257             -0.58615            15.92308            
B   4.63235             0.46796             13.82354            
