6
mol_index=44; VEHKIC  **FRAG**        1
B   1.63947             -0.69530            14.55527            
B   2.53024             0.91634             15.06814            
B   0.98616             -0.91634            16.10947            
B   1.87693             0.69531             16.62234            
B   2.63468             -0.63090            15.99411            
B   0.88172             0.63090             15.18349            
