6
mol_index=53; WIGRIN  **FRAG**        1
B   4.13960             10.11166            11.92712            
B   4.30246             10.86689            10.42943            
B   2.48190             10.26853            11.93570            
B   2.63125             11.10394            10.30642            
B   3.62820             11.71482            11.69396            
B   3.21391             9.56954             10.58106            
