6
mol_index=55; WIMGEE  **FRAG**        1
B   2.90360             3.89758             18.04234            
B   1.51753             3.94044             16.91263            
B   2.90360             2.22492             18.04234            
B   1.51753             2.18206             16.91263            
B   1.42989             3.06125             18.43418            
B   2.95878             3.06125             16.53351            
