6
mol_index=11; AHACIX  **FRAG**        1
C   3.89092             3.94646             7.34054             
C   3.42566             3.83003             6.03027             
C   4.14823             3.06803             5.10879             
C   5.29413             2.39447             5.51150             
C   5.72401             2.47969             6.82061             
C   5.03651             3.27041             7.73165             
