6
mol_index=30; AHADAQ01**FRAG**        2
C   18.04139            21.26020            7.29872             
C   16.94263            20.92119            8.09606             
C   17.12266            19.99682            9.12843             
C   18.37310            19.44492            9.37935             
C   19.46111            19.79790            8.59206             
C   19.28531            20.69102            7.54575             
