6
mol_index=39; AHALAY  **FRAG**        3
C   4.68225             7.32192             4.47922             
C   5.71356             6.43326             4.21391             
C   5.90182             5.95711             2.90897             
C   5.08477             6.38972             1.88953             
C   4.07480             7.30842             2.15466             
C   3.86072             7.75966             3.44110             
