6
mol_index=45; AHATAG  **FRAG**        1
C   5.14795             8.22142             3.78056             
C   3.94596             7.54214             4.02170             
C   2.85323             7.83443             3.21285             
C   2.97525             8.75559             2.17652             
C   4.16207             9.41730             1.94384             
C   5.24751             9.15044             2.76267             
