6
mol_index=49; AHATIO  **FRAG**        2
C   2.82630             0.85682             11.59333            
C   1.99766             1.72082             10.87347            
C   1.71452             1.42811             9.53466             
C   2.25367             0.29635             8.92584             
C   3.08789             -0.55179            9.65006             
C   3.37366             -0.27076            10.98310            
