8
mol_index=16; ABIFEW  **FRAG**        1
C   -0.20979            11.42826            4.74542             
C   -1.01173            10.43804            5.36337             
C   -1.01173            8.97796             5.36337             
C   -0.20979            7.98774             4.74542             
C   0.90322             7.98774             3.91759             
C   1.67726             9.04009             3.31713             
C   1.67726             10.37591            3.31713             
C   0.90322             11.42826            3.91759             
