8
mol_index=36; ASAKOU  **FRAG**        1
C   4.12330             5.18950             2.29005             
C   4.53017             4.97362             3.56727             
C   4.19464             4.99223             5.04098             
C   5.50696             4.55196             5.36430             
C   5.84249             4.53334             3.89059             
C   6.79506             4.30297             2.92241             
C   6.37083             4.52606             1.59250             
C   5.09282             4.94523             1.27811             
