8
mol_index=38; ATIHUH  **FRAG**        2
C   5.61588             0.70718             4.73732             
C   6.12778             1.52039             3.71305             
C   7.15258             1.41482             2.74252             
C   8.00438             0.32934             2.38566             
C   8.20746             -1.00788            2.80600             
C   7.68649             -1.86891            3.81020             
C   6.74000             -1.64694            4.84224             
C   5.89505             -0.58763            5.22825             
