8
mol_index=40; ATIJAP  **FRAG**        2
C   18.97138            7.25985             22.59849            
C   19.15408            8.64250             22.73577            
C   19.30198            9.74839             21.85010            
C   19.26706            9.84312             20.42859            
C   19.13954            8.95152             19.34364            
C   18.95629            7.54634             19.16352            
C   18.85136            6.48316             20.10330            
C   18.84273            6.37107             21.50621            
