8
mol_index=44; BAJSIQ  **FRAG**        2
C   8.48604             13.75779            15.87190            
C   8.60962             12.36687            15.73958            
C   7.74198             11.28925            15.40596            
C   6.36133             11.26977            15.07683            
C   5.30536             12.20157            14.97361            
C   5.13307             13.60685            15.15475            
C   6.06389             14.63173            15.47134            
C   7.43699             14.69293            15.76532            
