8
mol_index=45; BASCIH  **FRAG**        1
C   5.63666             6.45274             2.11446             
C   4.56322             7.32825             2.33974             
C   3.14431             6.87015             2.31400             
C   2.62770             5.95658             3.24088             
C   3.45582             5.36853             4.33995             
C   4.52072             4.49434             4.10179             
C   4.92285             4.08875             2.72434             
C   5.43038             5.00363             1.79584             
