8
mol_index=4; AJENUA  **FRAG**        2
C   2.95421             4.75302             17.19190            
C   3.52648             5.88252             16.57881            
C   4.47194             6.11364             15.55345            
C   5.24508             5.23745             14.74908            
C   5.40221             3.84315             14.63045            
C   4.83262             2.70878             15.25236            
C   3.87913             2.50803             16.26171            
C   3.09795             3.35365             17.06306            
