8
mol_index=56; BIJNAJ  **FRAG**        2
C   11.38475            8.82689             8.55370
C   10.30943            7.99163             8.84421
C   9.75828             7.44766             10.02201
C   10.01588            7.60780             11.38156
C   10.91810            8.34240             12.15435
C   11.98060            9.17708             11.87386
C   12.55044            9.71751             10.68032
C   12.30428            9.55631             9.27927
