8
mol_index=5; AJEPAI  **FRAG**        1
C   3.57359             5.91235             8.54187             
C   3.71572             4.50651             8.42218             
C   4.47254             3.62786             7.62807             
C   5.44078             3.84264             6.61759             
C   6.04481             4.96536             6.00762             
C   5.92578             6.36925             6.13652             
C   5.13520             7.21666             6.93293             
C   4.15453             7.03507             7.92730             
