8
mol_index=58; BIJXIB  **FRAG**        2
C   2.92202             -0.06740            -0.03572
C   4.26129             0.31455             0.14290
C   5.11354             1.21327             -0.46441
C   4.95701             2.20186             -1.42896
C   3.86125             2.60629             -2.18810
C   2.46981             2.49395             -2.30420
C   1.72191             1.50536             -1.64330
C   1.82627             0.49430             -0.69662
