8
mol_index=9; DUFXEJ  **FRAG**        1
C   2.96223             3.55436             7.01281             
C   1.73023             4.02112             7.40168             
C   1.27808             4.91595             8.35761             
C   1.86937             5.73216             9.30916             
C   3.21651             5.96429             9.73050             
C   4.47154             5.43513             9.32935             
C   4.87586             4.50535             8.35586             
C   4.23555             3.74406             7.41660             
