6
mol_index=1; BUKVUZ  **FRAG**        1
B   -1.91311            4.86943             -1.00033            
B   -1.88135            3.33098             -0.15982            
B   -0.82835            5.53205             0.15982             
B   -0.79659            3.99361             1.00033             
B   -0.38356            4.08604             -0.66432            
B   -2.32614            4.77699             0.66432             
