6
mol_index=12; HIWVOY  **FRAG**        1
B   4.74156             -2.24436            17.78160            
B   4.11924             -3.39091            16.67596            
B   3.13358             -2.04350            18.40795            
B   2.51974             -3.24949            17.28629            
B   3.85926             -3.60511            18.35314            
B   3.40479             -1.87334            16.74633            
