6
mol_index=21; MUJCEZ  **FRAG**        2
B   -6.82965            4.67168             10.58735            
B   -6.91660            3.16728             9.75972             
B   -5.10951            4.64801             10.43859            
B   -5.19645            3.14361             9.61096             
B   -6.09267            4.49950             9.03703             
B   -5.93344            3.31579             11.16128            
