6
mol_index=23; NIRVUF  **FRAG**        1
B   5.01960             -0.31335            1.19457             
B   3.91115             0.58586             0.17859             
B   6.05685             -0.58586            -0.17859            
B   4.94840             0.31335             -1.19457            
B   4.40036             -0.99325            -0.23739            
B   5.56764             0.99325             0.23739             
