6
mol_index=29; PUPDOT  **FRAG**        1
B   4.14974             -3.27826            10.67148            
B   5.41680             -2.41628            11.41766            
B   5.23193             -4.29131            9.82260             
B   6.60518             -3.48127            10.50898            
B   5.40285             -2.59130            9.72978             
B   5.24635             -4.22137            11.55156            
