6
mol_index=34; REGNIA  **FRAG**        1
B   5.29265             8.22100             10.70724            
B   6.29898             6.82365             10.85082            
B   6.22298             8.99260             11.94023            
B   7.22931             7.59525             12.08382            
B   6.97738             8.37696             10.52263            
B   5.54458             7.43929             12.26843            
