6
mol_index=48; VIJYET01**FRAG**        1
B   2.02257             5.24637             12.57011            
B   3.58498             4.60227             12.82458            
B   2.61629             6.42521             11.45641            
B   4.22451             5.87609             11.62580            
B   2.99391             4.76022             11.22825            
B   3.16545             6.41101             13.06783            
