6
mol_index=2; ACENAP04**FRAG**        2
C   4.67552             4.62221             2.07917             
C   4.11999             5.82407             2.37997             
C   4.80089             6.99000             2.00976             
C   6.03012             6.99000             1.35444             
C   6.57051             5.71740             1.05694             
C   5.90474             4.59397             1.41476             
