6
mol_index=20; AHACUJ  **FRAG**        4
C   7.96322             8.89682             2.21297             
C   6.89749             9.67388             2.65663             
C   5.62777             9.09834             2.77745             
C   5.43217             7.76612             2.45083             
C   6.49342             7.00160             1.97589             
C   7.75732             7.56676             1.86002             
