6
mol_index=25; AHADAQ  **FRAG**        5
C   0.84265             4.67384             2.85292             
C   0.82877             3.65616             3.82458             
C   -0.21901            3.63191             4.75413             
C   -1.23076            4.56277             4.70317             
C   -1.21278            5.56975             3.75145             
C   -0.16976            5.63625             2.83409             
