6
mol_index=26; AHADAQ  **FRAG**        6
C   3.76779             11.46892            2.60696             
C   4.43748             10.72853            1.63641             
C   5.38404             11.37017            0.82652             
C   5.64554             12.71278            1.01708             
C   4.97318             13.43304            1.97655             
C   4.03458             12.82081            2.76872             
