6
mol_index=32; AHADAQ01**FRAG**        4
C   12.40471            20.82890            10.57219            
C   12.28968            20.79728            9.17852             
C   11.23019            20.09794            8.59920             
C   10.32531            19.40705            9.39750             
C   10.45239            19.43205            10.77384            
C   11.47995            20.16044            11.36483            
