6
mol_index=34; AHAJAW  **FRAG**        2
C   1.86850             3.20454             2.31895             
C   0.66045             3.09343             3.06797             
C   -0.16928            1.96009             2.93418             
C   0.22732             0.95931             2.10808             
C   1.46144             1.02613             1.43298             
C   2.28805             2.10388             1.53214             
