6
mol_index=37; AHALAY  **FRAG**        1
C   7.10265             8.08795             7.27468             
C   6.48485             6.86834             6.99984             
C   5.52215             6.40317             7.90726             
C   5.25335             7.13276             9.06674             
C   5.92533             8.29067             9.33934             
C   6.85972             8.78035             8.43939             
