6
mol_index=38; AHALAY  **FRAG**        2
C   6.34302             10.20867            5.49494             
C   7.37698             9.31171             5.29852             
C   7.90451             9.06389             4.03560             
C   7.38846             9.76452             2.94445             
C   6.33631             10.65160            3.12929             
C   5.82065             10.87186            4.38960             
