6
mol_index=46; AHATAG  **FRAG**        2
C   1.68644             6.99293             11.03918            
C   2.33054             7.42212             9.87925             
C   3.59932             6.90830             9.60711             
C   4.19485             5.98587             10.45456            
C   3.54286             5.56708             11.60082            
C   2.29472             6.07501             11.89032            
