6
mol_index=5; ACNAQU01**FRAG**        2
C   1.48133             2.69499             16.74314            
C   1.69916             1.88751             17.89836            
C   2.33148             2.40834             19.00603            
C   2.79853             3.74213             19.06085            
C   2.59961             4.54099             17.95963            
C   1.94044             4.02565             16.82053            
