6
mol_index=6; AFIJOQ01**FRAG**        1
C   0.53281             4.76345             4.76452             
C   0.85179             3.43111             4.29359             
C   0.77129             3.15331             2.90694             
C   0.35075             4.17966             1.99429             
C   0.02641             5.40649             2.43220             
C   0.11805             5.74395             3.82359             
