6
mol_index=8; AGEFUP01**FRAG**        2
C   0.61203             7.05112             4.93905             
C   1.43189             6.34443             4.08230             
C   2.43329             6.97768             3.37673             
C   2.64615             8.34899             3.49360             
C   1.83252             9.04920             4.35065             
C   0.83841             8.41248             5.06776             
