5
mol_index=16; XUVZEV  **FRAG**        1
C   0.79157             7.82498             2.73472             
C   -0.31761            7.03011             2.11710             
C   -0.74680            7.76289             1.00259             
C   0.01279             8.93019             0.89400             
C   0.95005             8.99241             1.94772             
