5
mol_index=19; ACEDAN  **FRAG**        1
C   14.22695            11.08309            2.57939             
C   15.14075            10.36168            3.50910             
C   14.96512            9.04916             3.31464             
C   13.98430            8.82149             2.28369             
C   13.51470            10.01058            1.83129             
