5
mol_index=20; ACEDAN01**FRAG**        1
C   7.19810             -0.17410            9.94285             
C   8.37643             0.63419             10.33327            
C   9.35468             0.40540             9.41427             
C   8.88802             -0.53986            8.42912             
C   7.59205             -0.89358            8.72208             
