5
mol_index=3; KUVZAE  **FRAG**        1
C   8.32080             5.27703             2.40388             
C   7.51306             6.06029             3.31781             
C   8.08878             5.93883             4.58258             
C   9.20295             5.11041             4.45802             
C   9.36202             4.69930             3.14757             
