5
mol_index=31; AHIDOL  **FRAG**        1
C   1.02915             8.86714             12.19580            
C   2.22914             9.73167             11.84914            
C   2.15251             10.10849            10.56133            
C   0.91057             9.56725             9.96744             
C   0.24145             8.85673             10.88393            
