5
mol_index=40; BESMER  **FRAG**        1
C   3.87166             1.26294             3.20976             
C   2.91871             2.27064             3.59092             
C   3.52394             3.06014             4.54047             
C   4.80642             2.54968             4.73440             
C   5.04645             1.44543             3.91858             
