5
mol_index=8; RUNSIE  **FRAG**        1
C   -0.10541            7.67820             4.55364             
C   0.39986             9.03268             4.18930             
C   0.91628             8.99590             2.90478             
C   0.78361             7.62566             2.38998             
C   0.19575             6.84281             3.36736             
