12
mol_index=1; GUSFAD  **FRAG**        1
O   4.00660             5.67439             7.89600             
C   3.35680             4.50834             7.39685             
C   2.89242             3.62019             8.54726             
O   4.01770             3.36850             9.34827             
C   3.68328             2.73066             10.56999            
C   3.39959             3.74431             11.63364            
O   4.52962             4.59799             11.71564            
C   4.28079             5.87264             12.32769            
C   3.61513             6.80596             11.37694            
O   4.48841             6.94525             10.27525            
C   3.91309             7.63653             9.14742             
C   3.11748             6.68425             8.28699             
12
mol_index=2; GUSFAD  **FRAG**        2
O   7.22393             5.89746             10.89681            
C   7.74694             7.13040             10.17899            
C   8.07184             6.87353             8.79564             
O   6.86574             6.50462             8.25847             
C   6.99412             5.91298             6.90365             
C   7.41095             4.49593             6.96307             
O   6.47586             3.87188             7.73674             
C   6.85940             2.54413             8.25966             
C   7.70732             2.67791             9.52654             
O   6.87367             3.25093             10.39172            
C   7.57102             3.79879             11.61581            
C   8.20022             5.10964             11.32940            
12
mol_index=3; GUSPIV  **FRAG**        1
O   4.40910             -6.26168            -2.26501            
C   3.53864             -7.13333            -3.16277            
C   2.20811             -6.92191            -2.52583            
O   1.97896             -7.37126            -1.34169            
C   1.86422             -8.85239            -1.18921            
C   2.04915             -9.01156            0.27243             
O   3.29603             -8.63847            0.81118             
C   4.39912             -9.52311            0.46462             
C   5.61132             -8.67837            0.72860             
O   5.69773             -7.53288            -0.11024            
C   6.06932             -7.81853            -1.54168            
C   5.78531             -6.57340            -2.21115            
