8
mol_index=11; ACOQAK  **FRAG**        1
C   -3.79745            11.16699            6.46862             
C   -3.66330            10.40091            5.24146             
C   -2.31235            10.92728            5.06482             
C   -2.42771            11.69393            6.28640             
O   -4.63001            11.33211            7.35552             
O   -1.45160            10.71716            4.19465             
O   -4.37946            9.58887             4.58139             
O   -1.71865            12.47926            6.98551             
