8
mol_index=21; AFEFEY  **FRAG**        1
C   6.61162             11.75064            11.03477            
C   7.13980             10.37739            10.76883            
C   8.26727             10.96359            10.08798            
C   7.80702             12.30407            10.31869            
O   5.63422             12.20559            11.61746            
O   9.34003             10.49411            9.51000             
O   6.77334             9.22855             11.04890            
O   8.21546             13.45842            10.06986            
