8
mol_index=24; AFOYUQ  **FRAG**        1
C   -0.04915            0.98504             0.00000             
C   0.98504             0.04915             0.00000             
C   0.04915             -0.98504            0.00000             
C   -0.98504            -0.04915            0.00000             
O   -0.02006            2.23892             0.00000             
O   0.02006             -2.23892            0.00000             
O   2.23892             0.02006             0.00000             
O   -2.23892            -0.02006            0.00000             
