8
mol_index=27; AFOZOL  **FRAG**        1
C   1.14491             5.32544             7.62089             
C   0.47401             5.59123             6.36590             
C   1.16339             4.47577             5.72830             
C   1.88517             4.22477             6.99642             
O   1.10641             5.84518             8.76402             
O   1.12299             3.99092             4.57273             
O   -0.35106            6.46631             5.98647             
O   2.76598             3.43615             7.40465             
