8
mol_index=28; AFUBEJ  **FRAG**        1
C   6.94100             4.30050             1.02919             
C   6.30798             3.45158             0.00000             
C   6.94100             4.30050             -1.02919            
C   7.57402             5.14942             0.00000             
O   6.94100             4.30050             2.29366             
O   6.94100             4.30050             -2.29366            
O   5.56113             2.46333             0.00000             
O   8.32087             6.13767             0.00000             
