8
mol_index=30; AGEQIO  **FRAG**        2
C   0.24616             3.74782             -4.58448            
C   1.33550             3.64191             -3.58485            
C   1.76435             2.38750             -4.22252            
C   0.68123             2.48644             -5.14830            
O   -0.64942            4.57003             -4.81166            
O   2.69425             1.58290             -4.00027            
O   1.68623             4.29147             -2.59255            
O   0.26460             1.71859             -6.10420            
