8
mol_index=3; JUKROY  **FRAG**        1
C   6.59694             6.14612             -2.41874            
C   6.53794             6.15801             -0.93266            
C   7.61121             7.22203             -0.97865            
C   7.62385             7.16594             -2.44362            
O   5.97883             5.51213             -3.29636            
O   8.23072             7.85771             -0.08671            
O   5.88611             5.59201             -0.08972            
O   8.25180             7.77273             -3.32350            
