8
mol_index=36; AMKCYB01**FRAG**        1
C   -0.62287            2.64964             5.64615             
C   -0.47213            3.94507             4.98945             
C   -1.02282            4.60766             6.17131             
C   -1.17356            3.31223             6.82801             
O   -0.38799            1.45378             5.36170             
O   -1.25771            5.80352             6.45576             
O   -0.04745            4.35024             3.87955             
O   -1.59825            2.90706             7.93791             
