8
mol_index=40; AQEKUD  **FRAG**        1
C   0.00628             8.60984             0.96031             
C   0.00771             7.26412             0.38675             
C   -0.00628            7.84156             -0.96031            
C   -0.00771            9.18728             -0.38675            
O   0.00685             9.06242             2.13096             
O   -0.00685            7.38898             -2.13096            
O   0.02225             6.11523             0.88296             
O   -0.02225            10.33617            -0.88296            
