8
mol_index=43; AQELAK  **FRAG**        2
C   5.41299             -0.35288            4.68482             
C   5.35042             0.97062             5.29284             
C   5.14205             0.35288             6.60200             
C   5.20462             -0.97062            5.99398             
O   5.58410             -0.76517            3.51348             
O   4.97093             0.76517             7.77335             
O   5.43280             2.12737             4.82929             
O   5.12224             -2.12737            6.45753             
