8
mol_index=46; ATOLOL  **FRAG**        1
C   6.67569             1.41203             0.83580             
C   6.15032             2.25377             -0.21176            
C   4.77857             1.83096             0.16491             
C   5.35407             1.05244             1.27244             
O   7.88991             1.14865             1.16375             
O   3.65114             2.01699             -0.28016            
O   6.61347             3.02646             -1.06912            
O   4.86246             0.35543             2.20757             
