8
mol_index=49; ATOMEC  **FRAG**        1
C   0.38907             -2.15720            6.10446             
C   0.00000             -1.10277            7.06175             
C   -0.38907            -2.15720            8.01904             
C   0.00000             -3.16546            7.06175             
O   0.86567             -2.18411            4.95650             
O   -0.86567            -2.18411            9.16700             
O   0.00000             0.13560             7.06175             
O   0.00000             -4.42510            7.06175             
