8
mol_index=51; AVUHUU  **FRAG**        1
C   3.51785             0.67870             5.14308             
C   3.98583             -0.61707            4.69675             
C   2.86218             -0.67870            3.76577             
C   2.39420             0.61707             4.21210             
O   3.90450             1.51842             5.99120             
O   2.47553             -1.51842            2.91765             
O   4.94543             -1.36272            4.97408             
O   1.43460             1.36272             3.93477             
