8
mol_index=5; ACIQIN  **FRAG**        1
C   0.37918             3.98684             -3.20968            
C   1.12234             4.03695             -1.96979            
C   1.53929             5.38332             -2.28520            
C   0.78495             5.33321             -3.53354            
O   -0.27715            3.05614             -3.78128            
O   2.25629             6.28090             -1.76556            
O   1.34510             3.20211             -1.05499            
O   0.60064             6.15912             -4.46164            
