8
mol_index=7; ACIQOT  **FRAG**        1
C   6.10658             4.57420             5.59310             
C   5.85247             5.05860             6.94661             
C   7.08215             4.41105             7.41139             
C   7.33626             3.92665             6.05788             
O   5.53149             4.67422             4.48512             
O   7.65725             4.31104             8.51937             
O   4.93775             5.74128             7.46861             
O   8.25099             3.24398             5.53588             
