11
mol_index=1; APESOF  **FRAG**        1
C   -3.09055            1.58465             2.42372             
C   -2.38394            2.27891             1.45907             
C   -1.44445            3.13008             2.10788             
C   -1.56561            2.93552             3.50506             
C   -2.60226            1.96669             3.70992             
Fe  -3.30809            3.59582             2.70257             
C   -4.70784            4.54842             3.84131             
C   -3.72176            5.44272             3.45234             
C   -3.73018            5.44037             2.01919             
C   -4.71905            4.54371             1.59046             
C   -5.32413            3.99693             2.72280             
11
mol_index=2; AROVEK  **FRAG**        1
C   3.54007             6.21450             4.41689             
C   2.80650             7.41945             4.59927             
C   1.59954             7.09342             5.27498             
C   1.58651             5.69400             5.51310             
C   2.78019             5.15105             4.97997             
Fe  1.71258             6.07795             3.49534             
C   0.29903             4.95601             2.53592             
C   1.53365             4.85771             1.81925             
C   1.92393             6.18298             1.45266             
C   0.91878             7.08452             1.89807             
C   -0.08879            6.33113             2.56924             
11
mol_index=3; ARUSUD  **FRAG**        1
C   1.57993             4.87096             2.41852             
C   1.18117             4.56068             1.09963             
C   0.06507             5.36664             0.77072             
C   -0.23256            6.18431             1.89162             
C   0.69659             5.87617             2.92906             
Fe  -0.36306            4.22296             2.40543             
C   -1.17985            2.40436             1.96362             
C   -0.49983            2.34143             3.21215             
C   -1.10491            3.30109             4.08105             
C   -2.14438            3.96518             3.34797             
C   -2.19013            3.39565             2.05198             
