5
mol_index=10; TURKUO  **FRAG**        1
C   8.45573             4.24773             1.77852             
C   9.59997             3.33375             1.49823             
C   9.17293             2.03260             1.60281             
C   7.73854             2.03260             1.95424             
C   7.31150             3.33375             2.05882             
