5
mol_index=11; TURLAV  **FRAG**        1
C   4.34939             2.35378             17.94962            
C   5.62375             1.85532             17.41750            
C   5.63347             2.05335             16.04923            
C   4.36501             2.66702             15.66388            
C   3.59448             2.85677             16.79339            
