5
mol_index=12; TURLOJ  **FRAG**        1
C   1.40461             2.77955             3.20312             
C   0.94587             3.06158             4.63539             
C   1.33386             2.04612             5.46962             
C   2.03156             1.03331             4.67960             
C   2.06335             1.42316             3.36717             
