5
mol_index=18; ABUTUO  **FRAG**        1
C   3.34063             3.81287             18.30912            
C   2.42255             4.76052             19.03187            
C   1.93662             4.16317             20.12977            
C   2.42629             2.78909             20.17382            
C   3.17914             2.51274             19.09014            
