5
mol_index=2; BURXAP  **FRAG**        1
C   12.12301            2.28002             6.70185             
C   13.38521            1.59209             7.17993             
C   14.36310            2.50061             7.21204             
C   13.86437            3.80672             6.83219             
C   12.56377            3.71691             6.53659             
