5
mol_index=24; ACEDOC  **FRAG**        1
C   0.16043             1.07979             2.82343             
C   1.36482             1.06429             1.84840             
C   0.94689             1.53574             0.67628             
C   -0.50105            1.84896             0.72649             
C   -0.96900            1.58365             1.94615             
