5
mol_index=27; AGATIM  **FRAG**        2
C   5.01541             6.60970             5.13635             
C   5.03420             6.67442             3.71716             
C   6.26376             6.08437             3.25129             
C   6.99168             5.64263             4.40532             
C   6.23801             5.98227             5.57661             
