5
mol_index=30; AGEJAZ  **FRAG**        1
C   8.59147             10.44627            -0.85552            
C   8.45737             10.05568            0.59011             
C   7.66755             10.98134            1.20745             
C   7.22279             11.97863            0.21394             
C   7.73650             11.67715            -1.00542            
