5
mol_index=38; BEGFEY  **FRAG**        1
C   5.23138             -3.08333            2.78021             
C   4.58997             -1.82247            2.77409             
C   3.29985             -1.99094            3.35134             
C   3.07102             -3.30428            3.72054             
C   4.24534             -4.04088            3.40744             
