5
mol_index=39; BEGJOO  **FRAG**        1
C   6.51561             0.67888             6.85500             
C   6.73133             -0.45416            5.95796             
C   6.09579             -0.17690            4.78341             
C   5.47294             1.18745             4.91074             
C   5.75008             1.71087             6.13855             
