5
mol_index=43; BIDLIK  **FRAG**        2
C   7.94775             7.83753             8.17615             
C   9.22636             8.49007             8.62281             
C   9.02195             9.09870             9.81384             
C   7.60492             8.97522             10.18394            
C   6.95122             8.28264             9.22085             
