5
mol_index=47; BIMAZT  **FRAG**        1
C   0.13372             1.58106             -9.54017            
C   1.52848             2.14411             -9.51936            
C   2.21331             1.66212             -8.47321            
C   1.36459             0.73812             -7.70326            
C   0.14692             0.71542             -8.31619            
