8
mol_index=1; AYALOC  **FRAG**        1
C   1.10277             5.95059             8.53737             
C   1.10277             4.41141             8.76963             
C   0.00000             4.57285             9.85841             
C   0.00000             6.12187             9.62927             
C   0.00000             4.24013             7.67773             
C   -1.10277            4.41141             8.76963             
C   0.00000             5.78915             7.44859             
C   -1.10277            5.95059             8.53737             
