8
mol_index=14; BOBLUZ  **FRAG**        1
C   1.41971             3.38721             6.09036             
C   1.33764             2.16046             7.05074             
C   1.77566             3.07051             8.25184             
C   1.85978             4.29483             7.27889             
C   2.83429             1.82617             6.75910             
C   3.27230             2.73500             7.94826             
C   2.91430             3.04745             5.78616             
C   3.35437             3.95932             6.98160             
