8
mol_index=15; BOBLUZ  **FRAG**        2
C   0.75396             2.06399             26.62599            
C   -0.74473            1.75154             26.30985            
C   -0.80833            2.97768             25.35261            
C   0.69652             3.29499             25.67127            
C   -1.17762            2.65431             27.51283            
C   -1.24224            3.88591             26.55811            
C   0.31800             2.96252             27.82395            
C   0.25440             4.20200             26.85477            
