8
mol_index=19; BOBLUZ  **FRAG**        6
C   2.50603             2.14529             30.47756            
C   1.00836             1.80311             30.19347            
C   0.92630             2.97708             29.17024            
C   2.43115             3.32290             29.45936            
C   0.57342             2.76716             31.34492            
C   0.49546             3.94537             30.32546            
C   2.07006             3.10327             31.63027            
C   1.99210             4.28634             30.60075            
