8
mol_index=26; EFOTEY  **FRAG**        1
C   5.30215             2.12808             7.00966             
C   4.01965             3.01177             7.15024             
C   4.22132             3.05431             8.70487             
C   5.52150             2.18006             8.56039             
C   3.15616             1.71961             7.32218             
C   3.36152             1.76333             8.86859             
C   4.44131             0.84013             7.17944             
C   4.65153             0.89582             8.73017             
