8
mol_index=38; GOGXAB  **FRAG**        2
C   -1.16491            5.12453             2.90504             
C   -2.33403            6.11192             3.20689             
C   -1.82356            6.28975             4.66241             
C   -0.63656            5.29992             4.35740             
C   -1.45297            7.31774             2.75332             
C   -0.92778            7.48014             4.21421             
C   -0.26548            6.33116             2.46980             
C   0.24723             6.50250             3.91837             
