8
mol_index=4; AYAMET  **FRAG**        1
C   3.11518             -0.55939            -1.85503            
C   4.59725             -0.13694            -1.99198            
C   4.30603             0.39284             -3.44960            
C   2.81284             -0.05234            -3.28158            
C   4.24847             1.28109             -1.42415            
C   3.95115             1.78813             -2.86095            
C   2.74850             0.83802             -1.27182            
C   2.46361             1.36093             -2.72608            
