8
mol_index=45; HASHAK  **FRAG**        1
C   -1.19357            3.00561             1.83689             
C   -0.87770            4.51081             1.59661             
C   0.47556             4.28503             2.33583             
C   0.14104             2.81328             2.60631             
C   -0.19582            4.11779             0.25604             
C   1.16910             3.93860             0.99394             
C   -0.54667            2.61498             0.49631             
C   0.81592             2.45849             1.25260             
