8
mol_index=55; HESFAM  **FRAG**        1
C   2.69857             3.80762             1.48047             
C   4.18894             3.89104             1.93135             
C   3.73808             3.90601             3.43560             
C   2.24056             3.83157             2.96490             
C   4.11143             5.44324             1.89270             
C   3.65639             5.46852             3.37218             
C   2.62435             5.36418             1.43489             
C   2.17522             5.38192             2.92031             
