8
mol_index=56; HESFIU  **FRAG**        1
C   1.57929             6.83023             10.70640            
C   1.66806             7.62451             9.36839             
C   1.24143             6.34500             8.59205             
C   1.11267             5.55690             9.93354             
C   0.19166             8.07162             9.51113             
C   -0.28014            6.77150             8.72434             
C   0.09561             7.27939             10.86539            
C   -0.37352            5.98134             10.08092            
