8
mol_index=6; BEFSEL  **FRAG**        1
C   -1.24457            7.22321             3.49317             
C   -0.27877            6.19363             4.18204             
C   0.88020             7.28702             4.18204             
C   -0.11048            8.30639             3.50088             
C   0.21145             5.70011             2.76832             
C   1.35139             6.77989             2.77860             
C   -0.76533            6.72203             2.07174             
C   0.38120             7.80606             2.08716             
