8
mol_index=9; BOBLEJ  **FRAG**        1
C   7.91539             1.48498             9.94571             
C   6.45340             1.95663             9.73546             
C   6.84770             2.58944             8.35109             
C   8.30911             2.11100             8.59088             
C   6.77855             3.29951             10.44182            
C   7.18161             3.92774             9.06690             
C   8.23948             2.83186             10.64971            
C   8.64045             3.45191             9.29487             
