bis(dth)copper(I)  bis(dth)copper(I).mol L01_ch  (Symmetric)
 OpenBabel06082212393D

 13 14  0  0  0  0  0  0  0  0999 V2000
    0.0000    0.0000    0.0000 Cu  0  0  2  0  0  0  0  0  0  0  0  0
   -1.8171   -0.8992    0.4354 S   0  0  2  0  0  0  0  0  0  0  0  0
   -3.1162   -0.7787    0.4734 C   0  0  0  0  0  0  0  0  0  0  0  0
   -0.9768   -2.8958    0.3515 C   0  0  0  0  0  0  0  0  0  0  0  0
    0.8718   -1.7880    0.5858 S   0  0  1  0  0  0  0  0  0  0  0  0
    0.5559    1.8208    0.8221 S   0  0  1  0  0  0  0  0  0  0  0  0
    0.3895    0.8664   -1.8433 S   0  0  1  0  0  0  0  0  0  0  0  0
   -0.8945   -2.4237    1.6700 C   0  0  0  0  0  0  0  0  0  0  0  0
    1.9762   -2.4619    0.7581 C   0  0  0  0  0  0  0  0  0  0  0  0
    0.7276    2.5240    1.9082 C   0  0  0  0  0  0  0  0  0  0  0  0
    0.2706    2.8796   -1.0479 C   0  0  0  0  0  0  0  0  0  0  0  0
    0.4124    0.7166   -3.1397 C   0  0  0  0  0  0  0  0  0  0  0  0
    1.6007    2.4399   -0.9736 C   0  0  0  0  0  0  0  0  0  0  0  0
  1  2  1  0  0  0  0
  1  5  1  0  0  0  0
  1  6  1  0  0  0  0
  1  7  1  0  0  0  0
  2  3  1  1  0  0  0
  2  4  1  0  0  0  0
  4  8  1  0  0  0  0
  5  8  1  0  0  0  0
  5  9  1  6  0  0  0
  6 10  1  6  0  0  0
  6 11  1  0  0  0  0
  7 12  1  1  0  0  0
  7 13  1  0  0  0  0
 11 13  1  0  0  0  0
M  END

$$$$
