
  MOE2015           3D

 30 33  0  0  0  0  0  0  0  0999 V2000
    1.1301    0.6950    0.0031 C   0  0  0  0  0  0  0  0  0  0  0  0
   -0.1735    1.1960   -0.2542 C   0  0  0  0  0  0  0  0  0  0  0  0
   -0.3167    2.2176   -0.5899 H   0  0  0  0  0  0  0  0  0  0  0  0
   -1.3294    0.4090   -0.1825 C   0  0  0  0  0  0  0  0  0  0  0  0
   -2.3008    0.8530   -0.3837 H   0  0  0  0  0  0  0  0  0  0  0  0
   -1.2283   -0.9362    0.1208 C   0  0  0  0  0  0  0  0  0  0  0  0
   -2.1178   -1.5566    0.1790 H   0  0  0  0  0  0  0  0  0  0  0  0
    0.0308   -1.4950    0.3008 C   0  0  0  0  0  0  0  0  0  0  0  0
    0.1000   -2.5648    0.4888 H   0  0  0  0  0  0  0  0  0  0  0  0
    1.1943   -0.7102    0.2130 C   0  0  0  0  0  0  0  0  0  0  0  0
    2.4272   -1.3468    0.2973 C   0  0  0  0  0  0  0  0  0  0  0  0
    2.4918   -2.4227    0.4441 H   0  0  0  0  0  0  0  0  0  0  0  0
    3.5997   -0.6280    0.1230 C   0  0  0  0  0  0  0  0  0  0  0  0
    4.5421   -1.1729    0.1304 H   0  0  0  0  0  0  0  0  0  0  0  0
    3.5789    0.7586   -0.0426 C   0  0  0  0  0  0  0  0  0  0  0  0
    2.3604    1.4919   -0.0058 C   0  0  0  0  0  0  0  0  0  0  0  0
    2.4884    2.9523    0.0186 C   0  0  0  0  0  0  0  0  0  0  0  0
    3.7500    3.5597   -0.2306 C   0  0  0  0  0  0  0  0  0  0  0  0
    4.8844    2.7715   -0.3865 C   0  0  0  0  0  0  0  0  0  0  0  0
    5.8581    3.2225   -0.5645 H   0  0  0  0  0  0  0  0  0  0  0  0
    4.8054    1.3946   -0.2458 C   0  0  0  0  0  0  0  0  0  0  0  0
    5.7266    0.8181   -0.3097 H   0  0  0  0  0  0  0  0  0  0  0  0
    3.8956    4.9574   -0.2872 C   0  0  0  0  0  0  0  0  0  0  0  0
    4.8644    5.4026   -0.5059 H   0  0  0  0  0  0  0  0  0  0  0  0
    2.8217    5.8027   -0.0377 C   0  0  0  0  0  0  0  0  0  0  0  0
    2.9513    6.8804   -0.0730 H   0  0  0  0  0  0  0  0  0  0  0  0
    1.5997    5.2535    0.3044 C   0  0  0  0  0  0  0  0  0  0  0  0
    0.7624    5.8978    0.5592 H   0  0  0  0  0  0  0  0  0  0  0  0
    1.4480    3.8620    0.3456 C   0  0  0  0  0  0  0  0  0  0  0  0
    0.4934    3.5009    0.7133 H   0  0  0  0  0  0  0  0  0  0  0  0
  1  2  1  0  0  0  0
  1 10  2  0  0  0  0
  1 16  1  0  0  0  0
  2  3  1  0  0  0  0
  2  4  2  0  0  0  0
  4  5  1  0  0  0  0
  4  6  1  0  0  0  0
  6  7  1  0  0  0  0
  6  8  2  0  0  0  0
  8  9  1  0  0  0  0
  8 10  1  0  0  0  0
 10 11  1  0  0  0  0
 11 12  1  0  0  0  0
 11 13  2  0  0  0  0
 13 14  1  0  0  0  0
 13 15  1  0  0  0  0
 15 16  1  0  0  0  0
 15 21  2  0  0  0  0
 16 17  2  0  0  0  0
 17 18  1  0  0  0  0
 17 29  1  0  0  0  0
 18 19  2  0  0  0  0
 18 23  1  0  0  0  0
 19 20  1  0  0  0  0
 19 21  1  0  0  0  0
 21 22  1  0  0  0  0
 23 24  1  0  0  0  0
 23 25  2  0  0  0  0
 25 26  1  0  0  0  0
 25 27  1  0  0  0  0
 27 28  1  0  0  0  0
 27 29  2  0  0  0  0
 29 30  1  0  0  0  0
M  END
$$$$
