8
mol_index=1; JUKREO  **FRAG**        1
C   6.67263             4.15883             7.40277             
C   6.90040             3.01523             6.57465             
C   5.73351             3.36797             5.73209             
C   5.54685             4.59372             6.56716             
O   7.20451             4.62931             8.47670             
O   5.15476             2.82050             4.79779             
O   7.73872             2.06637             6.55406             
O   4.74719             5.54274             6.54443             
