8
mol_index=20; ADODEC  **FRAG**        1
C   16.27112            7.63462             0.38657             
C   16.07003            6.18272             0.33134             
C   14.78938            6.36188             -0.38657            
C   14.99047            7.81378             -0.33134            
O   17.15852            8.36804             0.85385             
O   13.90198            5.62846             -0.85385            
O   16.76931            5.24122             0.77314             
O   14.29119            8.75528             -0.77314            
