8
mol_index=23; AFIPUB  **FRAG**        1
C   1.44362             6.56875             1.93730             
C   2.77691             7.14414             1.84135             
C   2.19880             8.48028             1.97374             
C   0.85732             7.89165             2.02961             
O   0.99544             5.36984             1.96038             
O   2.65150             9.64067             2.03569             
O   3.92738             6.67107             1.70288             
O   -0.27645            8.40685             2.14561             
