8
mol_index=38; AQEKOX  **FRAG**        1
C   0.01917             8.47347             0.95853             
C   0.00014             7.12810             0.38828             
C   -0.01917            7.70653             -0.95853            
C   -0.00014            9.05190             -0.38828            
O   0.03208             8.93395             2.12799             
O   -0.03208            7.24605             -2.12799            
O   0.01030             5.98215             0.88935             
O   -0.01030            10.19785            -0.88935            
