8
mol_index=42; AQELAK  **FRAG**        1
C   0.01352             8.53426             0.95961             
C   0.00560             7.18632             0.38894             
C   -0.01352            7.76494             -0.95961            
C   -0.00560            9.11288             -0.38894            
O   0.02503             8.99145             2.13005             
O   -0.02503            7.30775             -2.13005            
O   0.01480             6.03894             0.88839             
O   -0.01480            10.26026            -0.88839            
