8
mol_index=52; AWOVEO  **FRAG**        1
C   19.07822            3.99374             3.59314             
C   19.29315            5.32997             4.04605             
C   19.85211            4.79390             5.31543             
C   19.64018            3.41277             4.78280             
O   18.50400            3.52289             2.51218             
O   20.25274            5.26748             6.37211             
O   19.06275            6.49570             3.62080             
O   19.81968            2.25707             5.20697             
