8
mol_index=53; AWOVEO  **FRAG**        2
C   17.34490            9.81754             0.22585             
C   18.01280            9.24361             1.41914             
C   17.72426            7.93290             0.93724             
C   17.06446            8.43289             -0.26330            
O   17.05946            10.95316            -0.15641            
O   17.87337            6.70837             1.37723             
O   18.55075            9.74677             2.44744             
O   16.47234            7.97111             -1.23918            
