water-6
  MOE2016           3D

  3  2  0  0  0  0  0  0  0  0999 V2000
   -1.8730    0.5920   -5.9070 O   0  0  0  0  0  0  0  0  0  0  0  0
   -1.2110    1.0190   -6.4510 H   0  0  0  0  0  0  0  0  0  0  0  0
   -1.8530    1.0750   -5.0810 H   0  0  0  0  0  0  0  0  0  0  0  0
  1  2  1  0  0  0  0
  1  3  1  0  0  0  0
M  END

