8
mol_index=1; ABIFAS01**FRAG**        1
C   9.53631             4.99919             9.96862             
C   8.77151             3.98717             9.34202             
C   8.77151             2.63603             9.34202             
C   9.53631             1.62401             9.96862             
C   10.61755            1.62136             10.82188            
C   11.36689            2.61219             11.38321            
C   11.36689            4.01101             11.38321            
C   10.61755            5.00184             10.82188            
