8
mol_index=20; ABIFIA  **FRAG**        1
C   0.36056             11.58868            10.16235            
C   1.40723             11.02766            9.37563             
C   1.86257             9.76245             9.02984             
C   1.40723             8.49724             9.37563             
C   0.36056             7.93622             10.16235            
C   -0.63356            8.42695             10.98387            
C   -1.08375            9.76245             11.40856            
C   -0.63356            11.09795            10.98387            
