8
mol_index=28; AJAMOO  **FRAG**        1
C   -0.30302            6.06119             8.47067             
C   -1.15046            5.43855             7.56804             
C   -1.31504            4.12462             7.13840             
C   -0.66620            2.91109             7.40217             
C   0.48738             2.52467             8.10790             
C   1.45924             3.21091             8.84240             
C   1.59716             4.52846             9.29632             
C   0.82238             5.68208             9.19060             
