8
mol_index=33; ARAYEY  **FRAG**        1
C   8.36530             3.66575             3.16672             
C   7.85909             4.97061             3.03531             
C   6.63302             5.51857             2.63091             
C   5.46610             4.96709             2.06549             
C   5.02761             3.66575             1.78417             
C   5.46610             2.36441             2.06549             
C   6.63302             1.81293             2.63091             
C   7.85909             2.36089             3.03531             
