8
mol_index=35; ARAYOI  **FRAG**        1
C   4.62211             12.43710            5.04596             
C   3.32864             12.39038            5.59643             
C   2.14227             11.73279            5.24605             
C   1.75787             10.80870            4.28370             
C   2.40072             10.10958            3.24425             
C   3.69744             10.15630            2.69183             
C   4.84444             10.88831            2.95145             
C   5.23946             11.84700            3.92648             
