8
mol_index=3; AJENUA  **FRAG**        1
C   0.05892             4.75711             14.41271            
C   0.68208             5.92652             13.93983            
C   1.68825             6.24604             12.99618            
C   2.44443             5.43703             12.10221            
C   2.56228             4.05187             11.83269            
C   1.98554             2.87739             12.35176            
C   1.00259             2.59059             13.31654            
C   0.20088             3.36884             14.16617            
