8
mol_index=39; ATIJAP  **FRAG**        1
C   15.11146            6.64696             19.92741            
C   15.20438            6.28575             21.28719            
C   15.14766            6.97680             22.52971            
C   14.90793            8.34637             22.83922            
C   14.73112            9.54328             22.11592            
C   14.70820            9.94971             20.74881            
C   14.82139            9.20395             19.53532            
C   14.96723            7.84999             19.20270            
