8
mol_index=41; ATIJET  **FRAG**        1
C   6.78420             2.38586             -1.26531            
C   7.20209             1.44818             -2.23238            
C   6.71743             0.22354             -2.74387            
C   5.59416             -0.57151            -2.39810            
C   4.47137             -0.51848            -1.53171            
C   4.06739             0.47932             -0.59511            
C   4.56705             1.70431             -0.13922            
C   5.70054             2.47753             -0.39984            
