8
mol_index=46; BASCON  **FRAG**        1
C   0.23623             1.86822             2.41496             
C   -0.41792            1.33457             3.42972             
C   -1.16698            2.04223             4.48776             
C   -2.22380            2.90986             4.21738             
C   -2.74188            3.15098             2.85936             
C   -2.10047            3.68118             1.83189             
C   -0.69775            4.12999             1.79557             
C   0.38367             3.29525             2.07720             
