8
mol_index=49; BEJJUV  **FRAG**        1
C   -2.61045            10.11227            10.35654            
C   -3.55726            9.23274             11.03093            
C   -4.10775            7.98092             10.65149            
C   -3.33900            6.84545             10.44263            
C   -1.93739            6.78960             10.58931            
C   -0.86176            7.50160             9.91970             
C   -0.83958            8.70378             9.22140             
C   -1.63309            9.86873             9.41431             
