8
mol_index=6; AJEPAI  **FRAG**        2
C   6.29531             5.70148             11.25796            
C   6.42411             4.31125             11.00706            
C   7.19426             3.50485             10.12088            
C   8.18915             3.81335             9.17716             
C   8.80029             4.99660             8.68228             
C   8.64306             6.36339             8.91245             
C   7.85604             7.14637             9.75720             
C   6.87270             6.86911             10.72625            
